####################################################################### 
# 
# This file contains crystal structure data downloaded from the 
# Cambridge Structural Database (CSD) hosted by the Cambridge 
# Crystallographic Data Centre (CCDC).
# 
# Full information about CCDC data access policies and citation 
# guidelines are available at http://www.ccdc.cam.ac.uk/access/V1 
# 
# Audit and citation data items may have been added by the CCDC. 
# Please retain this information to preserve the provenance of 
# this file and to allow appropriate attribution of the data. 
# 
#######################################################################

data_Coumarin_III_90K
_audit_block_doi                 10.5517/ccdc.csd.cc1nskhh
_database_code_depnum_ccdc_archive 'CCDC 1542947'
loop_
_citation_id
_citation_doi
_citation_year
1 10.1039/C7SC00168A 2017
_audit_update_record             
;
2017-04-07 deposited with the CCDC.	2021-04-12 downloaded from the CCDC.
;
# start Validation Reply Form
_vrf_REFI015_Coumarin_III_90K    
;
PROBLEM: _refine_ls_shift/su_max is missing
RESPONSE: Structure from powder data. Rietveld refined to very small shifts.
;
_vrf_PLAT161_Coumarin_III_90K    
;
PROBLEM: Missing or Zero s.u. (esd) on x-coordinate for .         C1 Check
RESPONSE: Structure from powder data. Molecules are refined as rigid bodies.
;
_vrf_PLAT162_Coumarin_III_90K    
;
PROBLEM: Missing or Zero s.u. (esd) on y-coordinate for .         C1 Check
RESPONSE: Structure from powder data. Molecules are refined as rigid bodies.
;
_vrf_PLAT163_Coumarin_III_90K    
;
PROBLEM: Missing or Zero s.u. (esd) on z-coordinate for .         C1 Check
RESPONSE: Structure from powder data. Molecules are refined as rigid bodies.
;
_vrf_PLAT741_Coumarin_III_90K    
;
PROBLEM: Bond    Calc 1.35920(10), Rep     1.35920 ......    Missing s.u.
RESPONSE: Structure from powder data. Molecules are refined as rigid bodies.
;
# Added during the CSD deposition process: Friday 07 April 2017 08:17 PM
# end Validation Reply Form

_chemical_name_systematic        2H-chromene-2-one
_chemical_name_common            coumarin
_chemical_formula_moiety         'C9 H6 O2'
_chemical_formula_sum            'C9 H6 O2'
_chemical_formula_weight         146.15
_chemical_melting_point          339.15
_exptl_special_details           
;
Polymorph III
From Rietveld refinement
;
_cell_length_a                   16.78223(33)
_cell_length_b                   5.92141(13)
_cell_length_c                   13.85224(55)
_cell_angle_alpha                90
_cell_angle_beta                 90
_cell_angle_gamma                90
_cell_volume                     1376.559(68)
_cell_formula_units_Z            8
_cell_measurement_temperature    90

_symmetry_space_group_name_H-M   'P 21 21 21'
_symmetry_space_group_name_Hall  'P 2ac 2ab'
_symmetry_cell_setting           orthorhombic
_space_group_crystal_system      orthorhombic
loop_
_symmetry_equiv_pos_as_xyz
'x, y, z '
'-x+1/2, -y, z+1/2 '
'-x, y+1/2, -z+1/2 '
'x+1/2, -y+1/2, -z '

_pd_spec_size_equat              1.0
_pd_spec_size_thick              1.0
_pd_spec_mounting                '1.0 mm glass capillary'
_pd_spec_mount_mode              transmission
_pd_spec_shape                   cylinder

_exptl_crystal_description       powder
_exptl_crystal_colour            white
_exptl_crystal_F_000             608
_exptl_absorpt_correction_type   none

_diffrn_ambient_temperature      90
_diffrn_radiation_probe          x-ray
_diffrn_radiation_wavelength     0.39992
_diffrn_source_type              synchrotron

_diffrn_measurement_device_type  'powder diffractometer at ESRF ID22 beamline'
_diffrn_radiation_monochromator  'monochromator at ESRF ID22 beamline'

_pd_calc_method                  '   Rietveld Refinement'
_pd_meas_2theta_range_min        0.502000
_pd_meas_2theta_range_max        33.002000
_pd_meas_2theta_range_inc        0.002000
_pd_proc_2theta_range_min        1.90000
_pd_proc_2theta_range_max        22.50000
_pd_proc_2theta_range_inc        0.002000
_pd_proc_ls_pref_orient_corr     none
_pd_proc_ls_prof_R_factor        9.82
_pd_proc_ls_prof_wR_factor       12.79
_pd_proc_ls_prof_wR_expected     9.44
_refine_ls_R_I_factor            3.76
_refine_ls_goodness_of_fit_all   1.354
_refine_ls_matrix_type           fullcycle
_refine_ls_weighting_scheme      sigma
_refine_ls_extinction_method     none
_refine_ls_number_parameters     25
_refine_ls_number_restraints     0
_refine_ls_number_constraints    0

loop_
_atom_site_label
_atom_site_type_symbol
_atom_site_symmetry_multiplicity
_atom_site_fract_x
_atom_site_fract_y
_atom_site_fract_z
_atom_site_occupancy
_atom_site_B_iso_or_equiv
C1 C 0 -0.10872 0.15762 -0.24868 1 1
C2 C 0 -0.1180877 -0.0087078 -0.1820184 1 1
C3 C 0 -0.1534626 0.3652123 -0.2423507 1 1
C4 C 0 -0.1724467 0.01752035 -0.1031833 1 1
C5 C 0 -0.2159731 0.2202374 -0.09673169 1 1
C6 C 0 -0.184695 -0.148358 -0.03194698 1 1
C7 C 0 -0.2699183 0.2597478 -0.02210551 1 1
C8 C 0 -0.2389499 -0.1122485 0.04198155 1 1
C9 C 0 -0.2813452 0.092272 0.04692507 1 1
C10 C 0 0.02195 0.15812 -0.02298 1 1
C11 C 0 0.01129121 0.0004549749 0.04719373 1 1
C12 C 0 -0.02010394 0.3703595 -0.02110323 1 1
C13 C 0 -0.04298147 0.04013455 0.1252553 1 1
C14 C 0 -0.0846956 0.2464615 0.1269728 1 1
C15 C 0 -0.05630689 -0.1156586 0.2003565 1 1
C16 C 0 -0.1387142 0.2972174 0.2002763 1 1
C17 C 0 -0.1089781 -0.06506099 0.2744328 1 1
C18 C 0 -0.1504785 0.140652 0.2740451 1 1
O1 O 0 -0.2066099 0.3857838 -0.1650797 1 1
O2 O 0 -0.1496848 0.5272961 -0.2973697 1 1
O3 O 0 -0.07251329 0.4058907 0.0562079 1 1
O4 O 0 -0.01399808 0.524852 -0.07966863 1 1
H1 H 0 -0.06625384 0.143566 -0.3080102 1 1
H2 H 0 -0.08306156 -0.1639099 -0.1867595 1 1
H3 H 0 -0.1504087 -0.3045712 -0.03625768 1 1
H4 H 0 -0.3019366 0.4198886 -0.01860403 1 1
H5 H 0 -0.248597 -0.2417199 0.09680588 1 1
H6 H 0 -0.3231007 0.1224007 0.1058526 1 1
H7 H 0 0.06338487 0.1325897 -0.08267024 1 1
H8 H 0 0.04404111 -0.1588439 0.04574697 1 1
H9 H 0 -0.02461346 -0.27613 0.1983672 1 1
H10 H 0 -0.1706485 0.4578375 0.1992069 1 1
H11 H 0 -0.1186756 -0.1861101 0.332743 1 1
H12 H 0 -0.1934603 0.1779911 0.3307374 1 1

loop_
_geom_bond_atom_site_label_1
_geom_bond_atom_site_label_2
_geom_bond_distance
C1 C2 1.3592
C1 C3 1.4431
C1 H1 1.0910
C2 C4 1.4314
C2 H2 1.0929
C3 O1 1.3986
C3 O2 1.2272
C4 C5 1.4080
C4 C6 1.4074
C5 C7 1.3939
C5 O1 1.3719
C6 C8 1.3869
C6 H3 1.0910
C7 C9 1.3909
C7 H4 1.0910
C8 C9 1.4063
C8 H5 1.0912
C9 H6 1.0905
C10 C11 1.3596
C10 C12 1.4416
C10 H7 1.0909
C11 C13 1.4332
C11 H8 1.0919
C12 O3 1.4017
C12 O4 1.2270
C13 C14 1.4083
C13 C15 1.4083
C14 C16 1.3940
C14 O3 1.3762
C15 C17 1.3871
C15 H9 1.0893
C16 C18 1.3938
C16 H10 1.0918
C17 C18 1.4032
C17 H11 1.0921
C18 H12 1.0890

loop_
_geom_angle_atom_site_label_1
_geom_angle_atom_site_label_2
_geom_angle_atom_site_label_3
_geom_angle
C2 C1 C3 121.05
C2 C1 H1 122.14
C3 C1 H1 116.78
C1 C2 C4 120.89
C1 C2 H2 120.42
C4 C2 H2 118.68
C1 C3 O1 116.90
C1 C3 O2 126.98
O1 C3 O2 116.11
C2 C4 C5 118.14
C2 C4 C6 123.52
C5 C4 C6 118.34
C4 C5 C7 121.81
C4 C5 O1 120.39
C7 C5 O1 117.79
C4 C6 C8 120.40
C4 C6 H3 118.45
C8 C6 H3 121.16
C5 C7 C9 118.67
C5 C7 H4 119.92
C9 C7 H4 121.42
C6 C8 C9 120.06
C6 C8 H5 120.20
C9 C8 H5 119.74
C7 C9 C8 120.72
C7 C9 H6 119.11
C8 C9 H6 120.16
C3 O1 C5 122.61
C11 C10 C12 121.42
C11 C10 H7 122.05
C12 C10 H7 116.52
C10 C11 C13 120.69
C10 C11 H8 120.92
C13 C11 H8 118.38
C10 C12 O3 116.86
C10 C12 O4 126.67
O3 C12 O4 116.46
C11 C13 C14 118.09
C11 C13 C15 123.43
C14 C13 C15 118.48
C13 C14 C16 121.51
C13 C14 O3 120.61
C16 C14 O3 117.88
C13 C15 C17 120.41
C13 C15 H9 118.37
C17 C15 H9 121.22
C14 C16 C18 118.87
C14 C16 H10 119.81
C18 C16 H10 121.32
C15 C17 C18 120.07
C15 C17 H11 120.02
C18 C17 H11 119.91
C16 C18 C17 120.66
C16 C18 H12 119.17
C17 C18 H12 120.15
C12 O3 C14 122.31

loop_
_refln_index_h
_refln_index_k
_refln_index_l
_refln_F_squared_calc
_refln_F_squared_meas
_refln_F_squared_sigma
_refln_observed_status
1 0 1 0.00 0.00 0.00 o
2 0 0 0.00 0.00 0.00 o
2 0 1 0.10 0.10 0.00 o
0 0 2 0.00 0.00 0.00 o
1 0 2 0.01 0.01 0.00 o
1 1 0 0.02 0.02 0.00 o
0 1 1 0.12 0.12 0.00 o
2 0 2 0.00 0.00 0.00 o
3 0 1 0.07 0.07 0.00 o
1 1 1 0.01 0.01 0.00 o
2 1 0 0.06 0.06 0.00 o
2 1 1 0.04 0.05 0.00 o
0 1 2 0.00 0.00 0.00 o
1 0 3 0.00 0.00 0.00 o
3 0 2 0.06 0.06 0.00 o
1 1 2 0.03 0.03 0.00 o
4 0 0 0.00 0.00 0.00 o
3 1 0 0.00 0.00 0.00 o
2 0 3 0.02 0.02 0.00 o
4 0 1 0.01 0.01 0.00 o
2 1 2 0.12 0.12 0.00 o
3 1 1 0.03 0.03 0.00 o
0 1 3 0.00 0.00 0.00 o
4 0 2 0.52 0.55 0.00 o
3 0 3 0.00 0.00 0.00 o
1 1 3 0.02 0.02 0.00 o
3 1 2 0.29 0.30 0.00 o
0 0 4 0.04 0.04 0.00 o
4 1 0 0.00 0.00 0.00 o
1 0 4 0.00 0.00 0.00 o
2 1 3 0.15 0.15 0.00 o
4 1 1 0.02 0.02 0.00 o
5 0 1 0.04 0.04 0.00 o
2 0 4 0.00 0.00 0.00 o
4 0 3 0.00 0.00 0.00 o
4 1 2 0.40 0.41 0.00 o
3 1 3 0.14 0.14 0.00 o
5 0 2 0.02 0.02 0.00 o
0 1 4 0.05 0.05 0.00 o
0 2 0 0.02 0.02 0.00 o
3 0 4 0.00 0.00 0.00 o
1 1 4 0.00 0.00 0.00 o
5 1 0 0.00 0.00 0.00 o
1 2 0 0.02 0.02 0.00 o
0 2 1 0.00 0.00 0.00 o
5 1 1 0.02 0.02 0.00 o
1 2 1 0.06 0.06 0.00 o
2 1 4 0.00 0.00 0.00 o
6 0 0 0.01 0.01 0.00 o
2 2 0 0.04 0.03 0.00 o
4 1 3 0.09 0.10 0.00 o
6 0 1 0.02 0.02 0.00 o
2 2 1 0.05 0.05 0.00 o
1 0 5 0.00 0.00 0.00 o
0 2 2 0.00 0.00 0.00 o
5 0 3 0.08 0.08 0.00 o
5 1 2 0.15 0.16 0.00 o
1 2 2 0.00 0.00 0.00 o
4 0 4 0.01 0.01 0.00 o
3 1 4 0.01 0.01 0.00 o
2 0 5 0.01 0.01 0.00 o
3 2 0 0.01 0.01 0.00 o
6 0 2 0.00 0.00 0.00 o
2 2 2 0.04 0.04 0.00 o
3 2 1 0.05 0.04 0.00 o
6 1 0 0.01 0.01 0.00 o
0 1 5 0.00 0.00 0.00 o
0 2 3 0.00 0.00 0.00 o
6 1 1 0.02 0.02 0.00 o
3 0 5 0.00 0.00 0.00 o
1 1 5 0.01 0.01 0.00 o
5 1 3 0.04 0.04 0.00 o
1 2 3 0.01 0.01 0.00 o
3 2 2 0.02 0.02 0.00 o
4 1 4 0.00 0.00 0.00 o
4 2 0 0.00 0.00 0.00 o
5 0 4 0.01 0.01 0.00 o
2 1 5 0.00 0.00 0.00 o
6 0 3 0.03 0.03 0.00 o
2 2 3 0.00 0.00 0.00 o
4 2 1 0.02 0.01 0.00 o
6 1 2 0.00 0.00 0.00 o
7 0 1 0.00 0.00 0.00 o
4 0 5 0.00 0.00 0.00 o
0 0 6 0.00 0.00 0.00 o
3 1 5 0.01 0.01 0.00 o
1 0 6 0.01 0.01 0.00 o
4 2 2 0.01 0.01 0.00 o
3 2 3 0.00 0.01 0.00 o
7 0 2 0.00 0.00 0.00 o
0 2 4 0.00 0.00 0.00 o
5 1 4 0.00 0.00 0.00 o
1 2 4 0.02 0.02 0.00 o
2 0 6 0.00 0.00 0.00 o
7 1 0 0.03 0.03 0.00 o
5 2 0 0.00 0.00 0.00 o
6 1 3 0.00 0.00 0.00 o
7 1 1 0.01 0.01 0.00 o
5 2 1 0.02 0.02 0.00 o
6 0 4 0.01 0.01 0.00 o
2 2 4 0.01 0.01 0.00 o
4 1 5 0.00 0.00 0.00 o
0 1 6 0.01 0.01 0.00 o
4 2 3 0.00 0.00 0.00 o
5 0 5 0.00 0.00 0.00 o
3 0 6 0.00 0.00 0.00 o
1 1 6 0.02 0.02 0.00 o
7 0 3 0.00 0.00 0.00 o
7 1 2 0.00 0.00 0.00 o
5 2 2 0.00 0.00 0.00 o
8 0 0 0.00 0.00 0.00 o
3 2 4 0.00 0.00 0.00 o
2 1 6 0.02 0.02 0.00 o
8 0 1 0.00 0.00 0.00 o
6 1 4 0.11 0.11 0.00 o
6 2 0 0.03 0.03 0.00 o
0 2 5 0.02 0.02 0.00 o
4 0 6 0.00 0.01 0.00 o
6 2 1 0.04 0.04 0.00 o
5 1 5 0.00 0.00 0.00 o
1 2 5 0.08 0.08 0.00 o
8 0 2 0.00 0.00 0.00 o
3 1 6 0.04 0.04 0.00 o
7 1 3 0.00 0.00 0.00 o
5 2 3 0.02 0.02 0.00 o
4 2 4 0.01 0.01 0.00 o
8 1 0 0.00 0.00 0.00 o
7 0 4 0.05 0.05 0.00 o
6 0 5 0.00 0.00 0.00 o
2 2 5 0.02 0.03 0.00 o
1 0 7 0.00 0.00 0.00 o
1 3 0 0.00 0.00 0.00 o
8 1 1 0.03 0.03 0.00 o
0 3 1 0.00 0.00 0.00 o
6 2 2 0.00 0.01 0.00 o
1 3 1 0.01 0.01 0.00 o
2 0 7 0.00 0.00 0.00 o
2 3 0 0.00 0.00 0.00 o
4 1 6 0.10 0.10 0.00 o
8 0 3 0.01 0.01 0.00 o
2 3 1 0.01 0.01 0.00 o
3 2 5 0.00 0.00 0.00 o
5 0 6 0.00 0.00 0.00 o
8 1 2 0.00 0.00 0.00 o
0 3 2 0.00 0.00 0.00 o
1 3 2 0.00 0.00 0.00 o
0 1 7 0.00 0.00 0.00 o
7 1 4 0.05 0.05 0.00 o
5 2 4 0.01 0.01 0.00 o
6 1 5 0.06 0.06 0.00 o
3 0 7 0.00 0.00 0.00 o
1 1 7 0.02 0.02 0.00 o
7 2 0 0.04 0.04 0.00 o
3 3 0 0.00 0.00 0.00 o
6 2 3 0.00 0.00 0.00 o
2 3 2 0.04 0.04 0.00 o
9 0 1 0.01 0.01 0.00 o
7 2 1 0.04 0.04 0.00 o
3 3 1 0.01 0.01 0.00 o
2 1 7 0.01 0.01 0.00 o
4 2 5 0.00 0.00 0.00 o
0 2 6 0.01 0.01 0.00 o
8 1 3 0.00 0.00 0.00 o
0 3 3 0.00 0.00 0.00 o
7 0 5 0.01 0.01 0.00 o
5 1 6 0.00 0.00 0.00 o
1 2 6 0.02 0.02 0.00 o
1 3 3 0.04 0.03 0.00 o
9 0 2 0.00 0.00 0.00 o
7 2 2 0.00 0.00 0.00 o
3 3 2 0.04 0.04 0.00 o
8 0 4 0.03 0.03 0.00 o
4 0 7 0.00 0.00 0.00 o
4 3 0 0.00 0.00 0.00 o
6 0 6 0.00 0.00 0.00 o
3 1 7 0.01 0.01 0.00 o
2 2 6 0.02 0.02 0.00 o
9 1 0 0.01 0.01 0.00 o
2 3 3 0.04 0.04 0.00 o
4 3 1 0.01 0.01 0.00 o
9 1 1 0.01 0.01 0.00 o
6 2 4 0.02 0.02 0.00 o
7 1 5 0.04 0.04 0.00 o
5 2 5 0.01 0.01 0.00 o
0 0 8 0.01 0.01 0.00 o
3 2 6 0.01 0.01 0.00 o
4 3 2 0.06 0.06 0.00 o
9 0 3 0.00 0.00 0.00 o
7 2 3 0.00 0.00 0.00 o
3 3 3 0.06 0.06 0.00 o
9 1 2 0.01 0.01 0.00 o
1 0 8 0.00 0.00 0.00 o
8 1 4 0.20 0.20 0.00 o
0 3 4 0.03 0.03 0.00 o
4 1 7 0.03 0.03 0.00 o
8 2 0 0.00 0.00 0.00 o
1 3 4 0.03 0.03 0.00 o
6 1 6 0.00 0.00 0.00 o
5 0 7 0.00 0.00 0.00 o
5 3 0 0.00 0.00 0.00 o
8 2 1 0.01 0.01 0.00 o
2 0 8 0.00 0.00 0.00 o
5 3 1 0.00 0.00 0.00 o
2 3 4 0.02 0.01 0.00 o
10 0 0 0.00 0.00 0.00 o
8 0 5 0.00 0.00 0.00 o
4 2 6 0.02 0.02 0.00 o
10 0 1 0.01 0.01 0.00 o
4 3 3 0.01 0.00 0.00 o
7 0 6 0.00 0.00 0.00 o
0 1 8 0.02 0.02 0.00 o
8 2 2 0.00 0.00 0.00 o
9 1 3 0.03 0.03 0.00 o
3 0 8 0.00 0.00 0.00 o
1 1 8 0.00 0.00 0.00 o
5 3 2 0.00 0.00 0.00 o
0 2 7 0.00 0.00 0.00 o
9 0 4 0.02 0.02 0.00 o
7 2 4 0.04 0.04 0.00 o
3 3 4 0.00 0.00 0.00 o
6 2 5 0.05 0.05 0.00 o
5 1 7 0.02 0.02 0.00 o
1 2 7 0.00 0.00 0.00 o
10 0 2 0.01 0.01 0.00 o
2 1 8 0.04 0.04 0.00 o
6 0 7 0.00 0.00 0.00 o
10 1 0 0.00 0.00 0.00 o
2 2 7 0.02 0.02 0.00 o
6 3 0 0.00 0.00 0.00 o
8 1 5 0.06 0.06 0.00 o
0 3 5 0.00 0.00 0.00 o
8 2 3 0.00 0.00 0.00 o
10 1 1 0.01 0.01 0.00 o
6 3 1 0.00 0.00 0.00 o
7 1 6 0.00 0.00 0.00 o
4 0 8 0.00 0.00 0.00 o
5 2 6 0.01 0.01 0.00 o
1 3 5 0.02 0.02 0.00 o
5 3 3 0.02 0.02 0.00 o
3 1 8 0.03 0.03 0.00 o
4 3 4 0.00 0.00 0.00 o
9 1 4 0.02 0.03 0.00 o
2 3 5 0.00 0.00 0.00 o
3 2 7 0.04 0.04 0.00 o
9 2 0 0.00 0.00 0.00 o
10 0 3 0.02 0.02 0.00 o
10 1 2 0.02 0.02 0.00 o
6 3 2 0.01 0.01 0.00 o
9 2 1 0.00 0.00 0.00 o
6 1 7 0.00 0.00 0.00 o
8 0 6 0.00 0.00 0.00 o
9 0 5 0.00 0.00 0.00 o
7 2 5 0.03 0.03 0.00 o
4 1 8 0.00 0.00 0.00 o
3 3 5 0.01 0.01 0.00 o
5 0 8 0.00 0.00 0.00 o
9 2 2 0.00 0.00 0.00 o
8 2 4 0.05 0.05 0.00 o
1 0 9 0.00 0.00 0.00 o
4 2 7 0.01 0.01 0.00 o
5 3 4 0.00 0.00 0.00 o
7 0 7 0.00 0.00 0.00 o
6 2 6 0.01 0.01 0.00 o
10 1 3 0.03 0.03 0.00 o
7 3 0 0.00 0.00 0.00 o
6 3 3 0.01 0.01 0.00 o
11 0 1 0.00 0.00 0.00 o
7 3 1 0.01 0.01 0.00 o
2 0 9 0.01 0.01 0.00 o
10 0 4 0.00 0.00 0.00 o
8 1 6 0.00 0.00 0.00 o
4 3 5 0.00 0.00 0.00 o
0 3 6 0.00 0.00 0.00 o
9 1 5 0.01 0.01 0.00 o
0 2 8 0.02 0.02 0.00 o
1 3 6 0.00 0.00 0.00 o
9 2 3 0.01 0.01 0.00 o
11 0 2 0.04 0.04 0.00 o
0 1 9 0.00 0.00 0.00 o
5 1 8 0.00 0.00 0.00 o
1 2 8 0.02 0.02 0.00 o
7 3 2 0.00 0.00 0.00 o
3 0 9 0.00 0.00 0.00 o
1 1 9 0.00 0.00 0.00 o
0 4 0 0.00 0.00 0.00 o
7 1 7 0.00 0.00 0.00 o
11 1 0 0.00 0.00 0.00 o
5 2 7 0.01 0.01 0.00 o
2 3 6 0.00 0.00 0.00 o
1 4 0 0.00 0.00 0.00 o
6 0 8 0.00 0.00 0.00 o
0 4 1 0.00 0.00 0.00 o
2 2 8 0.01 0.01 0.00 o
11 1 1 0.01 0.01 0.00 o
2 1 9 0.00 0.00 0.00 o
1 4 1 0.00 0.00 0.00 o
10 1 4 0.00 0.00 0.00 o
6 3 4 0.01 0.01 0.00 o
10 2 0 0.00 0.00 0.00 o
2 4 0 0.00 0.00 0.00 o
8 2 5 0.06 0.06 0.00 o
10 2 1 0.00 0.00 0.00 o
9 0 6 0.00 0.00 0.00 o
7 2 6 0.00 0.00 0.00 o
5 3 5 0.01 0.01 0.00 o
2 4 1 0.00 0.00 0.00 o
3 3 6 0.00 0.00 0.00 o
11 0 3 0.00 0.00 0.00 o
0 4 2 0.00 0.00 0.00 o
7 3 3 0.00 0.00 0.00 o
4 0 9 0.00 0.00 0.00 o
11 1 2 0.03 0.03 0.00 o
3 2 8 0.00 0.00 0.00 o
1 4 2 0.00 0.00 0.00 o
8 0 7 0.00 0.00 0.00 o
3 1 9 0.00 0.00 0.00 o
8 3 0 0.00 0.00 0.00 o
9 2 4 0.01 0.01 0.00 o
10 0 5 0.00 0.00 0.00 o
3 4 0 0.00 0.00 0.00 o
8 3 1 0.01 0.01 0.00 o
6 1 8 0.00 0.00 0.00 o
10 2 2 0.00 0.00 0.00 o
2 4 2 0.00 0.00 0.00 o
3 4 1 0.00 0.00 0.00 o
6 2 7 0.00 0.00 0.00 o
4 3 6 0.00 0.00 0.00 o
0 4 3 0.00 0.00 0.00 o
9 1 6 0.00 0.00 0.00 o
4 2 8 0.00 0.00 0.00 o
8 3 2 0.00 0.00 0.00 o
11 1 3 0.01 0.01 0.00 o
1 4 3 0.00 0.00 0.00 o
4 1 9 0.00 0.00 0.00 o
7 0 8 0.00 0.00 0.00 o
3 4 2 0.00 0.00 0.00 o
5 0 9 0.00 0.00 0.00 o
8 1 7 0.00 0.00 0.00 o
12 0 0 0.00 0.00 0.00 o
0 3 7 0.00 0.00 0.00 o
11 0 4 0.00 0.00 0.00 o
4 4 0 0.00 0.00 0.00 o
10 1 5 0.00 0.00 0.00 o
7 3 4 0.00 0.00 0.00 o
6 3 5 0.00 0.00 0.00 o
1 3 7 0.00 0.00 0.00 o
10 2 3 0.01 0.01 0.00 o
12 0 1 0.00 0.00 0.00 o
2 4 3 0.01 0.01 0.00 o
4 4 1 0.00 0.00 0.00 o
0 0 10 0.00 0.00 0.00 o
1 0 10 0.00 0.00 0.00 o
2 3 7 0.00 0.00 0.00 o
8 2 6 0.01 0.01 0.00 o
8 3 3 0.00 0.00 0.00 o
9 2 5 0.01 0.01 0.00 o
12 0 2 0.01 0.01 0.00 o
5 3 6 0.03 0.03 0.00 o
4 4 2 0.00 0.00 0.00 o
3 4 3 0.01 0.01 0.00 o
2 0 10 0.00 0.00 0.00 o
7 1 8 0.01 0.01 0.00 o
0 2 9 0.01 0.01 0.00 o
5 2 8 0.00 0.00 0.00 o
5 1 9 0.01 0.01 0.00 o
0 4 4 0.03 0.03 0.00 o
1 2 9 0.04 0.04 0.00 o
12 1 0 0.00 0.00 0.00 o
11 1 4 0.01 0.01 0.00 o
10 0 6 0.00 0.00 0.00 o
9 0 7 0.00 0.00 0.00 o
1 4 4 0.05 0.05 0.00 o
7 2 7 0.00 0.00 0.00 o
11 2 0 0.00 0.00 0.00 o
3 3 7 0.03 0.03 0.00 o
9 3 0 0.00 0.00 0.00 o
12 1 1 0.01 0.01 0.00 o
5 4 0 0.00 0.00 0.00 o
11 2 1 0.00 0.00 0.00 o
9 3 1 0.01 0.01 0.00 o
0 1 10 0.00 0.00 0.00 o
6 0 9 0.00 0.00 0.00 o
5 4 1 0.00 0.00 0.00 o
2 2 9 0.01 0.01 0.00 o
10 2 4 0.01 0.01 0.00 o
3 0 10 0.00 0.00 0.00 o
1 1 10 0.00 0.00 0.00 o
2 4 4 0.03 0.03 0.00 o
12 0 3 0.00 0.00 0.00 o
11 0 5 0.00 0.00 0.00 o
4 4 3 0.00 0.00 0.00 o
12 1 2 0.01 0.01 0.00 o
8 0 8 0.00 0.00 0.00 o
7 3 5 0.02 0.02 0.00 o
2 1 10 0.00 0.00 0.00 o
11 2 2 0.01 0.01 0.00 o
9 3 2 0.00 0.00 0.00 o
5 4 2 0.01 0.01 0.00 o
8 3 4 0.00 0.00 0.00 o
3 2 9 0.00 0.00 0.00 o
4 3 7 0.03 0.03 0.00 o
10 1 6 0.00 0.00 0.00 o
9 1 7 0.00 0.00 0.00 o
3 4 4 0.01 0.01 0.00 o
6 3 6 0.03 0.03 0.00 o
6 2 8 0.01 0.01 0.00 o
4 0 10 0.00 0.00 0.00 o
6 1 9 0.00 0.00 0.00 o
3 1 10 0.01 0.01 0.00 o
6 4 0 0.00 0.00 0.00 o
0 4 5 0.01 0.01 0.00 o
12 1 3 0.02 0.02 0.00 o
11 1 5 0.00 0.00 0.00 o
9 2 6 0.02 0.02 0.00 o
8 1 8 0.00 0.00 0.00 o
6 4 1 0.00 0.00 0.00 o
1 4 5 0.00 0.00 0.00 o
0 3 8 0.00 0.00 0.00 o
11 2 3 0.02 0.02 0.00 o
9 3 3 0.00 0.00 0.00 o
5 4 3 0.00 0.00 0.00 o
4 2 9 0.00 0.00 0.00 o
1 3 8 0.00 0.00 0.00 o
12 0 4 0.00 0.00 0.00 o
7 0 9 0.00 0.00 0.00 o
4 4 4 0.00 0.00 0.00 o
8 2 7 0.00 0.00 0.00 o
10 2 5 0.01 0.01 0.00 o
5 3 7 0.01 0.01 0.00 o
2 4 5 0.01 0.01 0.00 o
2 3 8 0.00 0.00 0.00 o
6 4 2 0.00 0.00 0.00 o
13 0 1 0.00 0.00 0.00 o
4 1 10 0.01 0.01 0.00 o
5 0 10 0.01 0.01 0.00 o
10 0 7 0.00 0.00 0.00 o
10 3 0 0.00 0.00 0.00 o
8 3 5 0.03 0.03 0.00 o
10 3 1 0.00 0.00 0.00 o
11 0 6 0.01 0.01 0.00 o
7 3 6 0.00 0.00 0.00 o
3 4 5 0.00 0.00 0.00 o
13 0 2 0.00 0.00 0.00 o
9 0 8 0.00 0.00 0.00 o
7 2 8 0.03 0.03 0.00 o
3 3 8 0.00 0.00 0.00 o
12 1 4 0.00 0.00 0.00 o
7 1 9 0.04 0.04 0.00 o
5 2 9 0.01 0.01 0.00 o
12 2 0 0.00 0.00 0.00 o
11 2 4 0.00 0.00 0.00 o
9 3 4 0.02 0.02 0.00 o
5 4 4 0.00 0.00 0.00 o
13 1 0 0.00 0.00 0.00 o
7 4 0 0.02 0.02 0.00 o
12 2 1 0.00 0.00 0.00 o
6 4 3 0.00 0.00 0.00 o
10 3 2 0.00 0.00 0.00 o
13 1 1 0.00 0.00 0.00 o
1 0 11 0.00 0.00 0.00 o
0 2 10 0.00 0.00 0.00 o
7 4 1 0.01 0.01 0.00 o
5 1 10 0.00 0.00 0.00 o
1 2 10 0.00 0.00 0.00 o
10 1 7 0.00 0.00 0.00 o
6 3 7 0.02 0.02 0.00 o
12 0 5 0.00 0.00 0.00 o
4 4 5 0.00 0.00 0.00 o
0 4 6 0.00 0.00 0.00 o
2 0 11 0.00 0.00 0.00 o
11 1 6 0.00 0.00 0.00 o
12 2 2 0.01 0.02 0.00 o
13 0 3 0.00 0.00 0.00 o
4 3 8 0.01 0.01 0.00 o
1 4 6 0.00 0.00 0.00 o
6 0 10 0.01 0.01 0.00 o
8 0 9 0.00 0.00 0.00 o
13 1 2 0.01 0.01 0.00 o
2 2 10 0.00 0.00 0.00 o
9 1 8 0.01 0.01 0.00 o
7 4 2 0.00 0.00 0.00 o
10 2 6 0.00 0.00 0.00 o
9 2 7 0.01 0.01 0.00 o
2 4 6 0.00 0.00 0.00 o
10 3 3 0.00 0.00 0.00 o
0 1 11 0.00 0.00 0.00 o
3 0 11 0.00 0.00 0.00 o
1 1 11 0.00 0.00 0.00 o
6 2 9 0.02 0.02 0.00 o
3 2 10 0.01 0.01 0.00 o
6 4 4 0.00 0.00 0.00 o
12 1 5 0.00 0.00 0.00 o
8 3 6 0.01 0.01 0.00 o
12 2 3 0.03 0.03 0.00 o
2 1 11 0.01 0.01 0.00 o
11 2 5 0.01 0.01 0.00 o
9 3 5 0.03 0.03 0.00 o
8 2 8 0.02 0.02 0.00 o
5 4 5 0.00 0.00 0.00 o
13 1 3 0.00 0.00 0.00 o
3 4 6 0.01 0.01 0.00 o
7 4 3 0.00 0.00 0.00 o
6 1 10 0.01 0.01 0.00 o
8 1 9 0.00 0.00 0.00 o
0 3 9 0.00 0.00 0.00 o
5 3 8 0.02 0.02 0.00 o
1 3 9 0.00 0.00 0.00 o
13 0 4 0.00 0.00 0.00 o
8 4 0 0.01 0.01 0.00 o
11 0 7 0.00 0.00 0.00 o
7 3 7 0.01 0.01 0.00 o
11 3 0 0.00 0.00 0.00 o
4 0 11 0.00 0.00 0.00 o
10 0 8 0.00 0.00 0.00 o
8 4 1 0.00 0.00 0.00 o
3 1 11 0.03 0.03 0.00 o
11 3 1 0.00 0.00 0.00 o
4 2 10 0.03 0.02 0.00 o
2 3 9 0.00 0.00 0.00 o
10 3 4 0.01 0.01 0.00 o
7 0 10 0.00 0.00 0.00 o
14 0 0 0.00 0.00 0.00 o
12 0 6 0.01 0.01 0.00 o
4 4 6 0.04 0.04 0.00 o
14 0 1 0.00 0.00 0.00 o
8 4 2 0.00 0.00 0.00 o
11 3 2 0.00 0.00 0.00 o
12 2 4 0.01 0.00 0.00 o
9 0 9 0.00 0.00 0.00 o
7 2 9 0.05 0.05 0.00 o
3 3 9 0.00 0.00 0.00 o
0 4 7 0.00 0.00 0.00 o
13 1 4 0.00 0.00 0.00 o
11 1 7 0.00 0.00 0.00 o
7 4 4 0.00 0.00 0.00 o
13 2 0 0.00 0.00 0.00 o
6 4 5 0.03 0.03 0.00 o
1 4 7 0.00 0.00 0.00 o
4 1 11 0.02 0.02 0.00 o
1 5 0 0.00 0.00 0.00 o
14 0 2 0.00 0.00 0.00 o
10 1 8 0.00 0.00 0.00 o
6 3 8 0.00 0.00 0.00 o
0 5 1 0.00 0.00 0.00 o
13 2 1 0.01 0.01 0.00 o
5 0 11 0.00 0.00 0.00 o
1 5 1 0.01 0.01 0.00 o
7 1 10 0.03 0.03 0.00 o
5 2 10 0.01 0.01 0.00 o
14 1 0 0.00 0.00 0.00 o
10 2 7 0.07 0.07 0.00 o
2 4 7 0.00 0.00 0.00 o
2 5 0 0.00 0.00 0.00 o
12 1 6 0.01 0.01 0.00 o
14 1 1 0.01 0.01 0.00 o
13 0 5 0.00 0.00 0.00 o
8 4 3 0.00 0.00 0.00 o
11 2 6 0.03 0.03 0.00 o
9 3 6 0.01 0.01 0.00 o
2 5 1 0.03 0.03 0.00 o
5 4 6 0.07 0.07 0.00 o
11 3 3 0.01 0.01 0.00 o
0 5 2 0.01 0.01 0.00 o
13 2 2 0.02 0.02 0.00 o
9 2 8 0.00 0.00 0.00 o
4 3 9 0.00 0.00 0.00 o
1 5 2 0.01 0.01 0.00 o
9 1 9 0.02 0.02 0.00 o
8 3 7 0.01 0.01 0.00 o
10 3 5 0.02 0.02 0.00 o
14 0 3 0.00 0.00 0.00 o
3 4 7 0.00 0.00 0.00 o
9 4 0 0.01 0.01 0.00 o
0 2 11 0.00 0.00 0.00 o
3 5 0 0.00 0.00 0.00 o
14 1 2 0.01 0.01 0.00 o
5 1 11 0.04 0.03 0.00 o
2 5 2 0.06 0.05 0.00 o
1 2 11 0.00 0.00 0.00 o
8 0 10 0.00 0.00 0.00 o
9 4 1 0.01 0.01 0.00 o
3 5 1 0.01 0.01 0.00 o
0 0 12 0.01 0.00 0.00 o
1 0 12 0.00 0.00 0.00 o
12 2 5 0.00 0.00 0.00 o
6 0 11 0.00 0.00 0.00 o
13 1 5 0.01 0.01 0.00 o
2 2 11 0.01 0.01 0.00 o
0 5 3 0.00 0.00 0.00 o
7 4 5 0.02 0.02 0.00 o
13 2 3 0.04 0.04 0.00 o
6 2 10 0.01 0.01 0.00 o
11 0 8 0.00 0.00 0.00 o
8 2 9 0.02 0.01 0.00 o
1 5 3 0.00 0.00 0.00 o
7 3 8 0.04 0.03 0.00 o
2 0 12 0.00 0.00 0.00 o
9 4 2 0.00 0.00 0.00 o
3 5 2 0.02 0.02 0.00 o
12 0 7 0.00 0.00 0.00 o
8 4 4 0.00 0.00 0.00 o
5 3 9 0.00 0.00 0.00 o
12 3 0 0.00 0.00 0.00 o
4 4 7 0.01 0.01 0.00 o
11 3 4 0.00 0.00 0.00 o
4 5 0 0.00 0.00 0.00 o
14 1 3 0.00 0.00 0.00 o
6 4 6 0.04 0.04 0.00 o
12 3 1 0.00 0.00 0.00 o
2 5 3 0.03 0.03 0.00 o
4 5 1 0.00 0.00 0.00 o
3 2 11 0.02 0.02 0.00 o
8 1 10 0.00 0.00 0.00 o
10 0 9 0.00 0.00 0.00 o
0 3 10 0.00 0.00 0.00 o
0 1 12 0.00 0.00 0.00 o
14 0 4 0.00 0.00 0.00 o
1 3 10 0.00 0.00 0.00 o
3 0 12 0.00 0.00 0.00 o
1 1 12 0.01 0.01 0.00 o
6 1 11 0.00 0.00 0.00 o
13 0 6 0.01 0.01 0.00 o
12 3 2 0.00 0.00 0.00 o
0 4 8 0.00 0.00 0.00 o
4 5 2 0.01 0.01 0.00 o
9 4 3 0.00 0.00 0.00 o
11 1 8 0.00 0.00 0.00 o
3 5 3 0.02 0.02 0.00 o
2 3 10 0.01 0.01 0.00 o
2 1 12 0.01 0.01 0.00 o
1 4 8 0.00 0.00 0.00 o
12 1 7 0.00 0.00 0.00 o
0 5 4 0.01 0.01 0.00 o
13 2 4 0.02 0.02 0.00 o
11 2 7 0.08 0.08 0.00 o
10 3 6 0.02 0.02 0.00 o
9 3 7 0.01 0.01 0.00 o
1 5 4 0.01 0.01 0.00 o
5 4 7 0.07 0.07 0.00 o
4 2 11 0.00 0.00 0.00 o
5 5 0 0.00 0.00 0.00 o
10 2 8 0.01 0.01 0.00 o
2 4 8 0.01 0.01 0.00 o
15 0 1 0.00 0.00 0.00 o
7 0 11 0.00 0.00 0.00 o
10 1 9 0.00 0.00 0.00 o
6 3 9 0.01 0.01 0.00 o
5 5 1 0.00 0.00 0.00 o
4 0 12 0.00 0.00 0.00 o
14 1 4 0.00 0.00 0.00 o
9 0 10 0.00 0.00 0.00 o
7 2 10 0.01 0.01 0.00 o
3 3 10 0.00 0.00 0.00 o
14 2 0 0.00 0.00 0.00 o
2 5 4 0.04 0.04 0.00 o
3 1 12 0.02 0.02 0.00 o
10 4 0 0.00 0.00 0.00 o
12 2 6 0.05 0.05 0.00 o
8 4 5 0.00 0.00 0.00 o
12 3 3 0.00 0.00 0.00 o
14 2 1 0.00 0.00 0.00 o
13 1 6 0.00 0.00 0.00 o
11 3 5 0.01 0.00 0.00 o
10 4 1 0.00 0.00 0.00 o
4 5 3 0.01 0.01 0.00 o
8 3 8 0.02 0.02 0.00 o
7 4 6 0.01 0.01 0.00 o
15 0 2 0.00 0.00 0.00 o
3 4 8 0.00 0.00 0.00 o
5 5 2 0.00 0.00 0.00 o
9 2 9 0.02 0.02 0.00 o
14 0 5 0.02 0.02 0.00 o
9 4 4 0.00 0.00 0.00 o
15 1 0 0.05 0.05 0.00 o
3 5 4 0.01 0.01 0.00 o
14 2 2 0.00 0.00 0.00 o
10 4 2 0.00 0.00 0.00 o
15 1 1 0.01 0.01 0.00 o
7 1 11 0.00 0.00 0.00 o
5 2 11 0.01 0.01 0.00 o
4 3 10 0.00 0.00 0.00 o
4 1 12 0.01 0.01 0.00 o
9 1 10 0.01 0.01 0.00 o
5 0 12 0.00 0.00 0.00 o
6 4 7 0.00 0.00 0.00 o
6 5 0 0.01 0.01 0.00 o
0 5 5 0.00 0.00 0.00 o
13 2 5 0.00 0.00 0.00 o
12 0 8 0.00 0.00 0.00 o
15 0 3 0.00 0.00 0.00 o
6 5 1 0.01 0.01 0.00 o
4 4 8 0.01 0.01 0.00 o
1 5 5 0.00 0.00 0.00 o
15 1 2 0.00 0.00 0.00 o
5 5 3 0.01 0.01 0.00 o
12 3 4 0.00 0.00 0.00 o
11 0 9 0.00 0.00 0.00 o
7 3 9 0.01 0.01 0.00 o
4 5 4 0.00 0.00 0.00 o
14 1 5 0.01 0.01 0.00 o
13 0 7 0.01 0.01 0.00 o
13 3 0 0.00 0.00 0.00 o
14 2 3 0.02 0.02 0.00 o
2 5 5 0.00 0.00 0.00 o
8 0 11 0.00 0.00 0.00 o
10 4 3 0.00 0.00 0.00 o
6 5 2 0.01 0.01 0.00 o
13 3 1 0.00 0.00 0.00 o
8 2 10 0.01 0.01 0.00 o
0 2 12 0.00 0.00 0.00 o
5 3 10 0.00 0.00 0.00 o
10 3 7 0.04 0.04 0.00 o
5 1 12 0.01 0.01 0.00 o
1 2 12 0.00 0.00 0.00 o
8 4 6 0.00 0.00 0.00 o
6 2 11 0.00 0.00 0.00 o
12 1 8 0.00 0.00 0.00 o
11 3 6 0.08 0.08 0.00 o
9 4 5 0.00 0.00 0.00 o
15 1 3 0.00 0.00 0.00 o
3 5 5 0.00 0.00 0.00 o
10 0 10 0.01 0.01 0.00 o
11 2 8 0.00 0.00 0.00 o
13 3 2 0.00 0.00 0.00 o
9 3 8 0.05 0.05 0.00 o
6 0 12 0.00 0.00 0.00 o
0 4 9 0.00 0.00 0.00 o
5 4 8 0.00 0.00 0.00 o
2 2 12 0.00 0.00 0.00 o
11 1 9 0.00 0.00 0.00 o
12 2 7 0.01 0.01 0.00 o
1 4 9 0.05 0.05 0.00 o
15 0 4 0.00 0.00 0.00 o
14 0 6 0.00 0.00 0.00 o
13 1 7 0.00 0.00 0.00 o
1 0 13 0.04 0.04 0.00 o
5 5 4 0.00 0.00 0.00 o
7 4 7 0.00 0.00 0.00 o
11 4 0 0.00 0.00 0.00 o
8 1 11 0.00 0.00 0.00 o
7 5 0 0.00 0.00 0.00 o
0 3 11 0.00 0.00 0.00 o
6 5 3 0.00 0.00 0.00 o
1 3 11 0.00 0.01 0.00 o
11 4 1 0.01 0.01 0.00 o
10 2 9 0.00 0.00 0.00 o
7 5 1 0.00 0.01 0.00 o
2 4 9 0.01 0.01 0.00 o
14 2 4 0.01 0.01 0.00 o
10 4 4 0.00 0.00 0.00 o
2 0 13 0.01 0.01 0.00 o
3 2 12 0.00 0.00 0.00 o
12 3 5 0.01 0.01 0.00 o
4 5 5 0.00 0.00 0.00 o
0 5 6 0.00 0.00 0.00 o
2 3 11 0.00 0.00 0.00 o
13 2 6 0.00 0.00 0.00 o
13 3 3 0.01 0.01 0.00 o
1 5 6 0.00 0.00 0.00 o
10 1 10 0.01 0.01 0.00 o
6 3 10 0.00 0.00 0.00 o
8 3 9 0.03 0.03 0.00 o
11 4 2 0.01 0.01 0.00 o
6 1 12 0.02 0.02 0.00 o
7 5 2 0.00 0.00 0.00 o
16 0 0 0.00 0.00 0.00 o
0 1 13 0.00 0.00 0.00 o
3 4 9 0.01 0.01 0.00 o
15 1 4 0.00 0.00 0.00 o
14 1 6 0.00 0.00 0.00 o
3 0 13 0.00 0.00 0.00 o
1 1 13 0.05 0.05 0.00 o
15 2 0 0.00 0.00 0.00 o
16 0 1 0.00 0.00 0.00 o
2 5 6 0.01 0.01 0.00 o
6 4 8 0.03 0.03 0.00 o
15 2 1 0.00 0.00 0.00 o
9 0 11 0.00 0.00 0.00 o
7 2 11 0.00 0.00 0.00 o
3 3 11 0.02 0.02 0.00 o
4 2 12 0.00 0.00 0.00 o
9 2 10 0.01 0.01 0.00 o
2 1 13 0.00 0.00 0.00 o
6 5 4 0.00 0.00 0.00 o
7 0 12 0.00 0.00 0.00 o
15 0 5 0.00 0.00 0.00 o
16 0 2 0.00 0.00 0.00 o
9 4 6 0.00 0.00 0.00 o
5 5 5 0.00 0.00 0.00 o
3 5 6 0.00 0.00 0.00 o
11 4 3 0.00 0.00 0.00 o
12 0 9 0.00 0.00 0.00 o
13 0 8 0.00 0.00 0.00 o
15 2 2 0.00 0.00 0.00 o
7 5 3 0.00 0.00 0.00 o
4 4 9 0.00 0.00 0.00 o
16 1 0 0.01 0.01 0.00 o
4 0 13 0.00 0.00 0.00 o
8 4 7 0.00 0.00 0.00 o
13 3 4 0.00 0.00 0.00 o
8 5 0 0.00 0.00 0.00 o
14 2 5 0.00 0.00 0.00 o
3 1 13 0.00 0.00 0.00 o
11 3 7 0.00 0.00 0.00 o
10 4 5 0.00 0.00 0.00 o
16 1 1 0.02 0.02 0.00 o
4 3 11 0.01 0.01 0.00 o
10 3 8 0.01 0.01 0.00 o
8 5 1 0.01 0.01 0.00 o
9 1 11 0.00 0.00 0.00 o
11 0 10 0.01 0.01 0.00 o
14 0 7 0.00 0.00 0.00 o
7 3 10 0.00 0.00 0.00 o
14 3 0 0.00 0.00 0.00 o
7 1 12 0.00 0.00 0.00 o
5 2 12 0.00 0.00 0.00 o
12 3 6 0.01 0.01 0.00 o
16 0 3 0.00 0.00 0.00 o
4 5 6 0.00 0.00 0.00 o
15 1 5 0.00 0.00 0.00 o
14 3 1 0.00 0.00 0.00 o
16 1 2 0.00 0.00 0.00 o
12 2 8 0.01 0.01 0.00 o
15 2 3 0.01 0.01 0.00 o
8 5 2 0.00 0.00 0.00 o
12 1 9 0.00 0.00 0.00 o
13 1 8 0.00 0.00 0.00 o
7 4 8 0.02 0.02 0.00 o
11 2 9 0.00 0.00 0.00 o
4 1 13 0.00 0.00 0.00 o
9 3 9 0.02 0.02 0.00 o
5 4 9 0.01 0.01 0.00 o
12 4 0 0.00 0.00 0.00 o
0 5 7 0.00 0.00 0.00 o
11 4 4 0.00 0.00 0.00 o
13 2 7 0.01 0.01 0.00 o
5 0 13 0.00 0.00 0.00 o
7 5 4 0.00 0.00 0.00 o
6 5 5 0.00 0.00 0.00 o
8 2 11 0.00 0.00 0.00 o
1 5 7 0.00 0.00 0.00 o
12 4 1 0.01 0.01 0.00 o
14 3 2 0.00 0.00 0.00 o
5 3 11 0.01 0.01 0.00 o
0 4 10 0.02 0.02 0.00 o
8 0 12 0.00 0.00 0.00 o
11 1 10 0.00 0.00 0.00 o
14 1 7 0.00 0.00 0.00 o
1 4 10 0.01 0.01 0.00 o
2 5 7 0.00 0.00 0.00 o
16 1 3 0.00 0.00 0.00 o
10 0 11 0.01 0.01 0.00 o
15 0 6 0.00 0.00 0.00 o
13 3 5 0.01 0.01 0.00 o
8 5 3 0.00 0.00 0.00 o
12 4 2 0.00 0.00 0.00 o
5 5 6 0.00 0.00 0.00 o
10 2 10 0.00 0.00 0.00 o
2 4 10 0.03 0.03 0.00 o
16 0 4 0.00 0.00 0.00 o
6 2 12 0.00 0.00 0.00 o


loop_
_pd_proc_2theta_corrected
_pd_proc_intensity_total
_pd_calc_intensity_total

1.9 136.03837 133.53268
1.902 147.05414 133.51863
1.904 118.051 133.50462
1.906 125.56427 133.49064
1.908 136.80457 133.47671
1.91 119.50269 133.46281
1.912 133.11935 133.44896
1.914 111.23935 133.43514
1.916 147.48611 133.42137
1.918 110.12555 133.40765
1.92 141.47543 133.39397
1.922 122.4132 133.38034
1.924 144.8385 133.36675
1.926 110.91642 133.35322
1.928 128.00697 133.33973
1.93 147.52258 133.32631
1.932 156.64062 133.31293
1.934 148.95403 133.29961
1.936 139.7769 133.28636
1.938 141.87866 133.27316
1.94 124.19328 133.26002
1.942 136.38343 133.24695
1.944 113.44513 133.23395
1.946 152.32053 133.22101
1.948 148.18571 133.20815
1.95 155.32096 133.19536
1.952 143.20311 133.18265
1.954 135.869 133.17002
1.956 160.27539 133.15747
1.958 131.75501 133.14501
1.96 129.35456 133.13264
1.962 146.28435 133.12036
1.964 117.36985 133.10819
1.966 127.15487 133.09611
1.968 125.81164 133.08413
1.97 152.14408 133.07227
1.972 161.88889 133.06052
1.974 138.49533 133.0489
1.976 148.75469 133.0374
1.978 146.2671 133.02602
1.98 145.23406 133.01479
1.982 130.44516 133.0037
1.984 116.48524 132.99276
1.986 128.15296 132.98197
1.988 136.68855 132.97135
1.99 129.13464 132.96091
1.992 164.47539 132.95064
1.994 122.07629 132.94057
1.996 117.94254 132.93069
1.998 151.6756 132.92103
2 140.4947 132.91159
2.002 172.38498 132.90239
2.004 143.14466 132.89343
2.006 101.49412 132.88473
2.008 118.78785 132.87631
2.01 89.55338 132.86819
2.012 113.04696 132.86037
2.014 110.13723 132.85288
2.016 139.35268 132.84573
2.018 138.50304 132.83896
2.02 119.40396 132.83258
2.022 124.90434 132.82662
2.024 136.34394 132.8211
2.026 137.72903 132.81605
2.028 148.49947 132.81152
2.03 127.4635 132.80752
2.032 138.61365 132.8041
2.034 144.79097 132.8013
2.036 157.37021 132.79917
2.038 152.88973 132.79776
2.04 158.17426 132.79711
2.042 143.04414 132.79729
2.044 118.08709 132.79837
2.046 148.35697 132.80041
2.048 167.55521 132.8035
2.05 167.01353 132.80772
2.052 128.29827 132.81317
2.054 119.84606 132.81995
2.056 126.09792 132.8282
2.058 109.81334 132.83803
2.06 136.99876 132.84961
2.062 139.25408 132.8631
2.064 112.76738 132.87868
2.066 124.62867 132.89658
2.068 152.96252 132.91702
2.07 149.30235 132.94029
2.072 167.67171 132.96669
2.074 165.7368 132.99657
2.076 136.63808 133.03033
2.078 145.6285 133.06845
2.08 137.98053 133.11146
2.082 157.44565 133.15997
2.084 129.83657 133.21471
2.086 163.28331 133.27652
2.088 111.66824 133.3464
2.09 135.02485 133.42551
2.092 141.91814 133.51524
2.094 148.9645 133.61726
2.096 170.68627 133.73356
2.098 116.51921 133.86655
2.1 136.28804 134.01918
2.102 155.47281 134.19509
2.104 159.01478 134.39874
2.106 127.83524 134.63578
2.108 151.98839 134.9133
2.11 181.53395 135.24037
2.112 143.46644 135.62874
2.114 137.81528 136.09378
2.116 138.45513 136.65596
2.118 140.32125 137.34297
2.12 107.11851 138.19342
2.122 119.2232 139.2638
2.124 168.54381 140.6439
2.126 149.11637 142.49279
2.128 138.81035 145.11575
2.13 168.59257 149.10084
2.132 164.30395 155.49283
2.134 182.86781 165.88579
2.136 237.04437 182.21311
2.138 229.32476 206.00818
2.14 327.88204 236.90959
2.142 377.32513 269.93978
2.144 339.02403 292.94902
2.146 321.10542 292.75664
2.148 276.65574 269.49155
2.15 218.05667 236.40924
2.152 185.35321 205.55827
2.154 174.42036 181.83598
2.156 173.99194 165.56772
2.158 147.13453 155.20852
2.16 135.12954 148.82666
2.162 167.91181 144.83508
2.164 160.64296 142.19591
2.166 173.78432 140.32572
2.168 159.00654 138.92171
2.17 148.63607 137.82603
2.172 142.2797 136.94942
2.174 145.14322 136.23567
2.176 152.4166 135.64636
2.178 121.91677 135.15389
2.18 146.87002 134.73787
2.182 146.15131 134.38297
2.184 121.9379 134.07751
2.186 130.99874 133.81242
2.188 137.60637 133.58064
2.19 142.8625 133.37655
2.192 124.28418 133.19567
2.194 105.38278 133.03439
2.196 118.15711 132.88978
2.198 142.17655 132.75942
2.2 143.26157 132.64132
2.202 149.55426 132.53383
2.204 112.82826 132.43555
2.206 153.0942 132.34532
2.208 140.68957 132.26215
2.21 164.12939 132.1852
2.212 124.01458 132.11375
2.214 132.52659 132.04718
2.216 137.28561 131.98496
2.218 130.97454 131.92661
2.22 135.99975 131.87175
2.222 144.46217 131.82001
2.224 117.95628 131.77109
2.226 156.77694 131.72471
2.228 170.16776 131.68064
2.23 133.93883 131.63867
2.232 121.76761 131.5986
2.234 112.3708 131.56028
2.236 135.22181 131.52354
2.238 173.48941 131.48826
2.24 150.58831 131.45432
2.242 143.61178 131.4216
2.244 130.46805 131.39001
2.246 122.78577 131.35947
2.248 141.28463 131.3299
2.25 113.31579 131.30122
2.252 151.80636 131.27336
2.254 115.18334 131.24627
2.256 116.01591 131.2199
2.258 147.48083 131.19419
2.26 126.00303 131.16911
2.262 100.17413 131.1446
2.264 143.21528 131.12063
2.266 171.57155 131.09717
2.268 127.26074 131.07418
2.27 136.67514 131.05163
2.272 157.42872 131.02951
2.274 141.19824 131.00777
2.276 165.52449 130.9864
2.278 140.35905 130.96539
2.28 168.82795 130.94469
2.282 139.46712 130.92431
2.284 116.40654 130.90422
2.286 133.2641 130.88441
2.288 118.8927 130.86485
2.29 141.03916 130.84555
2.292 134.82369 130.82647
2.294 154.29399 130.80762
2.296 104.6316 130.78899
2.298 134.61563 130.77055
2.3 132.9533 130.7523
2.302 127.27609 130.73423
2.304 135.1133 130.71634
2.306 150.97285 130.69861
2.308 125.41509 130.68104
2.31 141.82657 130.66361
2.312 143.84106 130.64633
2.314 168.36054 130.62919
2.316 148.05275 130.61218
2.318 135.65336 130.59529
2.32 150.20487 130.57852
2.322 116.17532 130.56187
2.324 126.90011 130.54533
2.326 140.20052 130.52889
2.328 170.6579 130.51255
2.33 168.19467 130.49631
2.332 139.39082 130.48017
2.334 141.19779 130.46411
2.336 147.0987 130.44814
2.338 134.41286 130.43225
2.34 112.56963 130.41645
2.342 128.23486 130.40072
2.344 126.66398 130.38506
2.346 135.77023 130.36948
2.348 138.15028 130.35396
2.35 108.12377 130.33852
2.352 149.27281 130.32313
2.354 135.45001 130.30781
2.356 168.21201 130.29256
2.358 156.91105 130.27735
2.36 147.35621 130.26221
2.362 104.61432 130.24712
2.364 123.82727 130.23208
2.366 120.96183 130.2171
2.368 165.86544 130.20216
2.37 168.12293 130.18728
2.372 121.19584 130.17244
2.374 104.09122 130.15764
2.376 119.23495 130.14289
2.378 117.97789 130.12818
2.38 146.16099 130.11352
2.382 132.36666 130.0989
2.384 114.74815 130.08431
2.386 113.09365 130.06977
2.388 140.17157 130.05526
2.39 114.25663 130.04079
2.392 132.11697 130.02635
2.394 153.80112 130.01195
2.396 129.60206 129.99759
2.398 137.09153 129.98325
2.4 137.65742 129.96895
2.402 136.65481 129.95469
2.404 183.81362 129.94045
2.406 135.40651 129.92624
2.408 133.8798 129.91206
2.41 133.40499 129.89792
2.412 139.58216 129.8838
2.414 148.66734 129.8697
2.416 117.69664 129.85564
2.418 118.09604 129.8416
2.42 154.44859 129.82759
2.422 119.45618 129.8136
2.424 113.43493 129.79964
2.426 131.74487 129.78571
2.428 154.67353 129.7718
2.43 116.28382 129.75791
2.432 136.15094 129.74404
2.434 141.2334 129.7302
2.436 105.59853 129.71639
2.438 135.43144 129.70259
2.44 137.94102 129.68882
2.442 131.35038 129.67507
2.444 146.67358 129.66134
2.446 107.3481 129.64763
2.448 133.79929 129.63394
2.45 131.51512 129.62027
2.452 140.66585 129.60662
2.454 124.43716 129.59299
2.456 133.97305 129.57939
2.458 143.64848 129.5658
2.46 147.83831 129.55223
2.462 127.44685 129.53868
2.464 102.41327 129.52515
2.466 136.15707 129.51163
2.468 145.55058 129.49814
2.47 127.61129 129.48466
2.472 135.143 129.47121
2.474 124.32639 129.45777
2.476 137.66493 129.44434
2.478 121.29819 129.43094
2.48 139.46997 129.41755
2.482 140.85529 129.40418
2.484 134.53127 129.39083
2.486 132.47493 129.37749
2.488 147.91518 129.36418
2.49 132.61705 129.35088
2.492 125.19774 129.33759
2.494 118.25222 129.32432
2.496 128.34025 129.31107
2.498 145.94755 129.29784
2.5 127.34877 129.28462
2.502 116.71914 129.27142
2.504 127.30432 129.25823
2.506 169.28627 129.24507
2.508 115.26822 129.23192
2.51 115.15158 129.21878
2.512 120.11865 129.20566
2.514 137.27838 129.19256
2.516 126.11446 129.17947
2.518 125.37129 129.16641
2.52 155.00412 129.15335
2.522 134.63732 129.14032
2.524 106.85757 129.1273
2.526 126.24323 129.1143
2.528 132.19231 129.10131
2.53 146.80625 129.08834
2.532 104.64004 129.07539
2.534 157.37871 129.06246
2.536 137.9902 129.04954
2.538 123.64613 129.03664
2.54 146.2584 129.02376
2.542 152.7154 129.54103
2.544 130.96845 129.53146
2.546 146.61998 129.52193
2.548 144.96494 129.51246
2.55 155.04139 129.50303
2.552 141.30511 129.49366
2.554 101.42314 129.48433
2.556 124.72349 129.47506
2.558 112.79417 129.46584
2.56 145.989 129.45667
2.562 136.12846 129.44756
2.564 130.04595 129.43851
2.566 117.10524 129.42951
2.568 124.82703 129.42056
2.57 108.85868 129.41168
2.572 113.07669 129.40285
2.574 123.09609 129.39409
2.576 125.58653 129.38538
2.578 112.63473 129.37674
2.58 129.32153 129.36816
2.582 108.61303 129.35965
2.584 121.81259 129.3512
2.586 129.02171 129.34283
2.588 128.81927 129.33452
2.59 138.4873 129.32628
2.592 111.29538 129.31811
2.594 107.58245 129.31002
2.596 131.60217 129.30201
2.598 121.51197 129.29407
2.6 133.88493 129.28621
2.602 81.3129 129.27844
2.604 143.72021 129.27075
2.606 112.9453 129.26315
2.608 146.026 129.25564
2.61 136.88182 129.24823
2.612 117.89695 129.24091
2.614 136.13204 129.23369
2.616 108.56529 129.22658
2.618 145.47724 129.21957
2.62 89.27383 129.21268
2.622 107.88083 129.2059
2.624 123.4169 129.19925
2.626 122.74568 129.19272
2.628 127.67552 129.18633
2.63 139.60236 129.18007
2.632 124.36318 129.17396
2.634 102.44693 129.16801
2.636 120.72486 129.16222
2.638 135.32973 129.1566
2.64 143.04451 129.15922
2.642 118.09404 129.15402
2.644 146.43703 129.14904
2.646 140.69304 129.14427
2.648 108.90591 129.12315
2.65 134.03667 129.119
2.652 152.05108 129.11513
2.654 125.69938 129.11155
2.656 120.20972 129.10828
2.658 111.76569 129.10536
2.66 141.61386 129.10282
2.662 118.31675 129.1007
2.664 121.05721 129.09902
2.666 147.86184 129.09786
2.668 131.3292 129.09724
2.67 121.46004 129.09725
2.672 136.97962 129.09796
2.674 130.99375 129.09944
2.676 128.46472 129.10181
2.678 125.26962 129.10518
2.68 120.58377 129.10971
2.682 135.81937 129.11555
2.684 162.51204 129.12292
2.686 86.74593 129.13207
2.688 95.32627 129.14331
2.69 115.15543 129.15703
2.692 128.71473 129.17368
2.694 138.40318 129.19388
2.696 128.50077 129.21838
2.698 109.86103 129.24816
2.7 100.90697 129.2845
2.702 119.61935 129.32914
2.704 157.68143 129.38458
2.706 128.45156 129.45468
2.708 104.12465 129.5459
2.71 119.21843 129.66966
2.712 99.44314 129.84618
2.714 148.06357 130.1094
2.716 135.48648 130.51113
2.718 156.23899 131.12037
2.72 116.73358 132.01272
2.722 131.55026 133.24663
2.724 141.27239 134.8244
2.726 132.9963 136.6316
2.728 124.801 138.35173
2.73 147.69331 139.44767
2.732 140.76232 139.43487
2.734 135.68737 138.31859
2.736 132.78695 136.58787
2.738 137.99933 134.77685
2.74 117.22725 133.1982
2.742 134.26845 131.96398
2.744 110.09739 131.07068
2.746 133.65906 130.45938
2.748 157.92252 130.05444
2.75 115.20904 129.7871
2.752 127.37858 129.60586
2.754 114.25513 129.47701
2.756 152.36588 129.38054
2.758 155.56678 129.30512
2.76 114.46141 129.24433
2.762 128.54127 129.19436
2.764 132.37501 129.15273
2.766 138.77117 129.11771
2.768 120.29511 129.08802
2.77 108.86564 129.0627
2.772 89.91771 129.04099
2.774 112.54008 129.0223
2.776 144.74429 129.00618
2.778 150.92127 128.99223
2.78 133.08441 128.98016
2.782 147.20045 128.96972
2.784 114.63164 128.96072
2.786 112.34169 128.95297
2.788 112.58388 128.94635
2.79 138.02771 128.94074
2.792 124.56331 128.93604
2.794 136.09103 128.93216
2.796 113.54647 128.92905
2.798 129.08287 128.92665
2.8 113.42794 128.9249
2.802 139.96562 128.92376
2.804 120.94944 128.9232
2.806 112.23151 128.92319
2.808 126.41778 128.92369
2.81 135.83606 128.9247
2.812 101.13447 128.92619
2.814 121.56367 128.92814
2.816 128.40047 128.93055
2.818 97.49796 128.93339
2.82 118.26241 128.93667
2.822 112.81475 128.94038
2.824 124.49184 128.9445
2.826 116.46407 128.94904
2.828 87.61675 128.95399
2.83 108.20839 128.95935
2.832 104.97746 128.96512
2.834 99.8507 128.9713
2.836 134.97821 128.97789
2.838 116.2285 128.98489
2.84 127.38073 128.99231
2.842 134.91933 129.00014
2.844 114.67613 129.0084
2.846 118.67524 129.01708
2.848 144.12948 129.02619
2.85 124.04869 129.03573
2.852 126.04533 129.04572
2.854 140.2013 129.05615
2.856 128.90561 129.06704
2.858 86.23343 129.07839
2.86 129.43821 129.09021
2.862 91.2335 129.1025
2.864 139.51353 129.11529
2.866 132.48936 129.12857
2.868 118.96084 129.14236
2.87 112.57428 129.15666
2.872 130.70136 129.20787
2.874 116.23488 129.22344
2.876 138.29066 129.23957
2.878 164.32356 129.25625
2.88 103.65761 129.27352
2.882 102.83474 129.29137
2.884 161.79471 129.30983
2.886 114.91556 129.3289
2.888 94.81867 129.3486
2.89 121.44923 129.36896
2.892 141.13787 129.38997
2.894 112.55906 129.41167
2.896 112.68033 129.43406
2.898 140.35649 129.45716
2.9 108.91834 129.481
2.902 116.85396 129.50559
2.904 126.79354 129.53095
2.906 111.21524 129.5571
2.908 134.11002 129.58407
2.91 135.20004 129.61187
2.912 128.33248 129.64054
2.914 146.08327 129.67008
2.916 146.34891 129.70053
2.918 123.87272 129.73191
2.92 93.07664 129.76426
2.922 133.47257 129.79758
2.924 127.73747 129.83193
2.926 110.92211 129.86732
2.928 142.45035 129.90378
2.93 120.24722 129.94136
2.932 154.08827 129.98007
2.934 123.42229 130.01997
2.936 118.55377 130.06107
2.938 135.59075 130.10342
2.94 146.27689 130.14706
2.942 121.4389 130.19203
2.944 120.52593 130.23837
2.946 127.74484 130.28613
2.948 146.48361 130.33534
2.95 113.55182 130.38607
2.952 135.10332 130.43835
2.954 125.52695 130.49224
2.956 149.804 130.5478
2.958 143.31235 130.60507
2.96 157.31888 130.66412
2.962 161.68474 130.72501
2.964 122.71816 130.78781
2.966 158.8958 130.85257
2.968 168.29962 130.91937
2.97 150.72219 130.98828
2.972 137.94168 131.05938
2.974 152.66177 131.13275
2.976 143.72872 131.20846
2.978 150.4923 131.28662
2.98 137.8521 131.3673
2.982 126.59218 131.4506
2.984 160.71107 131.53663
2.986 107.81814 131.62549
2.988 117.26941 131.71728
2.99 128.73728 131.81213
2.992 117.38488 131.91016
2.994 131.02667 132.01148
2.996 128.11308 132.11625
2.998 152.41673 132.22458
3 158.82715 132.33665
3.002 115.90842 132.45259
3.004 108.0642 132.57257
3.006 120.12303 132.69678
3.008 144.84212 132.82538
3.01 119.81214 132.95857
3.012 148.72151 133.09655
3.014 137.63379 133.23954
3.016 138.60953 133.38776
3.018 157.19147 133.54145
3.02 175.02415 133.70087
3.022 141.65076 133.86627
3.024 149.31198 134.03795
3.026 136.6861 134.21621
3.028 136.88323 134.40135
3.03 153.91994 134.59373
3.032 133.98518 134.7937
3.034 137.34446 135.00164
3.036 142.33625 135.21795
3.038 129.29866 135.44308
3.04 105.39272 135.67747
3.042 127.59037 135.92162
3.044 162.39082 136.17605
3.046 129.24258 136.44133
3.048 135.75927 136.71804
3.05 119.55305 137.00683
3.052 128.50699 137.30839
3.054 146.75764 137.62344
3.056 114.5689 137.95278
3.058 128.06818 138.29725
3.06 144.00071 138.65775
3.062 133.303 139.03528
3.064 128.06313 139.43087
3.066 112.3075 139.84568
3.068 95.89816 140.28092
3.07 148.29442 140.73792
3.072 105.27358 141.21813
3.074 147.88321 141.72309
3.076 142.02626 142.2545
3.078 101.30113 142.8142
3.08 139.81704 143.40418
3.082 172.5394 144.02663
3.084 107.91903 144.68391
3.086 135.91178 145.37863
3.088 139.9842 146.11363
3.09 114.45651 146.89204
3.092 159.70737 147.71728
3.094 125.63114 148.59312
3.096 114.02388 149.52373
3.098 131.04069 150.51369
3.1 116.6601 151.5681
3.102 139.05628 152.69259
3.104 143.19366 153.89343
3.106 167.87038 155.17761
3.108 130.02293 156.55293
3.11 150.20831 158.02811
3.112 137.33167 159.61297
3.114 125.38452 161.31852
3.116 131.80569 163.1572
3.118 171.17866 165.1431
3.12 169.66553 167.2922
3.122 176.27016 169.6227
3.124 149.11945 172.15541
3.126 135.26547 174.91418
3.128 168.30755 177.92646
3.13 140.89415 181.22399
3.132 154.06735 184.84359
3.134 159.87372 188.82817
3.136 166.80922 193.22799
3.138 184.00738 198.10219
3.14 167.84852 203.5207
3.142 155.67323 209.56675
3.144 180.84315 216.33988
3.146 172.8961 223.95998
3.148 201.38189 232.57234
3.15 174.8255 242.35441
3.152 207.33514 253.52456
3.154 201.66016 266.35413
3.156 257.74059 281.18437
3.158 271.79126 298.45223
3.16 250.29363 318.73352
3.162 301.30763 342.82197
3.164 328.12252 371.88206
3.166 390.67502 407.74226
3.168 456.41089 453.42637
3.17 523.75185 514.02374
3.172 606.21795 597.91838
3.174 815.53391 718.1701
3.176 1046.24045 893.46285
3.178 1191.12974 1147.64306
3.18 1667.48378 1506.75505
3.182 2117.76967 1992.87321
3.184 2699.26355 2614.61944
3.186 3893.2006 3353.89038
3.188 4647.3023 4146.81284
3.19 5542.31878 4862.21278
3.192 6478.89721 5309.52668
3.194 6172.09082 5327.43865
3.196 5229.5471 4908.28481
3.198 4047.55565 4205.4764
3.2 2855.93837 3412.3678
3.202 2047.12997 2665.88791
3.204 1510.66902 2034.20086
3.206 1130.25848 1538.00453
3.208 898.0064 1170.11599
3.21 661.81525 909.07132
3.212 558.9569 728.84724
3.214 451.2366 605.27825
3.216 420.64921 519.24642
3.218 360.25992 457.2931
3.22 324.98533 410.73524
3.222 310.72067 374.2882
3.224 271.86272 344.81248
3.226 233.01593 320.41509
3.228 220.87022 299.89606
3.23 221.74084 282.44151
3.232 203.96186 267.46337
3.234 218.81962 254.5166
3.236 173.79204 243.25422
3.238 183.87473 233.40073
3.24 178.33959 224.73467
3.242 158.87627 217.07632
3.244 153.82556 210.27872
3.246 162.34276 204.22084
3.248 169.98455 198.80238
3.25 161.92994 193.93976
3.252 183.71437 189.56295
3.254 169.9712 185.61308
3.256 147.90506 182.04044
3.258 166.8827 178.80298
3.26 169.26323 175.86511
3.262 180.92054 173.19671
3.264 156.48879 170.77242
3.266 198.5459 168.57105
3.268 149.07107 166.57517
3.27 116.86067 164.77086
3.272 152.57029 163.14762
3.274 138.01001 161.69854
3.276 119.95733 160.42086
3.278 155.33376 159.31739
3.28 135.01064 158.39932
3.282 142.498 157.69169
3.284 154.49863 157.24281
3.286 149.14488 157.13847
3.288 164.81211 157.51998
3.29 179.99026 158.60122
3.292 145.91761 160.67443
3.294 158.30547 164.09108
3.296 207.30482 169.2053
3.298 194.28639 176.2747
3.3 177.0674 185.31937
3.302 181.05305 195.92763
3.304 148.89412 206.9807
3.306 168.5705 216.39043
3.308 187.73288 221.39094
3.31 172.64593 219.98565
3.312 193.36634 212.50862
3.314 199.15238 201.31214
3.316 182.80063 189.05265
3.318 128.35112 177.56196
3.32 164.69062 167.76076
3.322 135.67967 159.99827
3.324 157.21313 154.04897
3.326 158.45454 149.68181
3.328 122.79936 146.53144
3.33 161.10726 144.25194
3.332 165.95787 142.5635
3.334 133.7868 141.26419
3.336 144.89677 140.22035
3.338 155.27969 139.34857
3.34 140.18864 138.59832
3.342 125.06686 137.93874
3.344 139.52768 137.35021
3.346 122.89891 136.8194
3.348 118.57138 136.33667
3.35 118.1347 135.8947
3.352 133.0444 135.4877
3.354 128.91148 135.11102
3.356 116.33369 134.76084
3.358 117.39459 134.43403
3.36 134.95275 134.12796
3.362 124.4693 133.84042
3.364 168.22917 133.56954
3.366 125.06008 133.31373
3.368 110.15851 133.0716
3.37 141.69933 132.84198
3.372 126.28825 132.62382
3.374 110.02994 132.41622
3.376 135.46033 132.21838
3.378 128.05266 132.0296
3.38 123.96293 131.84926
3.382 127.17782 131.67678
3.384 134.32446 131.51168
3.386 98.43153 131.35351
3.388 143.60148 131.20186
3.39 108.90664 131.05636
3.392 96.66581 130.91669
3.394 145.19175 130.78255
3.396 128.40192 130.65366
3.398 142.96661 130.52976
3.4 124.71071 130.41064
3.402 128.83268 130.29609
3.404 110.26266 130.18591
3.406 136.5601 130.07994
3.408 136.00377 129.978
3.41 123.05439 129.87996
3.412 124.50346 130.0857
3.414 107.88652 129.99658
3.416 131.02431 129.91099
3.418 130.23797 129.82884
3.42 132.04263 129.75005
3.422 117.31073 129.67452
3.424 130.30194 129.60219
3.426 143.64838 129.53299
3.428 135.7171 129.46686
3.43 126.10744 129.40376
3.432 141.21674 129.34364
3.434 117.15587 129.28647
3.436 127.30572 129.23223
3.438 129.68836 129.1809
3.44 127.10529 129.13246
3.442 101.15167 129.08691
3.444 102.07268 129.04427
3.446 119.70674 129.00453
3.448 124.17387 128.96772
3.45 94.13308 128.93388
3.452 130.64397 128.90303
3.454 134.87134 128.87523
3.456 101.42062 128.85054
3.458 135.45879 128.82902
3.46 141.01858 128.81075
3.462 124.49868 128.79583
3.464 135.05325 128.78437
3.466 109.76689 128.77647
3.468 107.21443 128.77229
3.47 107.97139 128.77196
3.472 106.44771 128.77567
3.474 105.42341 128.78361
3.476 126.10896 128.79598
3.478 119.84621 128.81303
3.48 137.16927 128.83503
3.482 127.25547 128.87385
3.484 121.11157 128.90674
3.486 140.50344 128.94558
3.488 125.0395 128.99079
3.49 110.99282 129.04285
3.492 131.61153 129.10227
3.494 115.71514 129.16964
3.496 108.78232 129.24563
3.498 111.36563 129.33097
3.5 100.82889 129.4265
3.502 123.66077 129.53317
3.504 122.78692 129.65206
3.506 114.98593 129.78439
3.508 107.57662 129.93155
3.51 102.61886 130.09512
3.512 100.72329 130.27694
3.514 134.14332 130.4791
3.516 139.9576 130.70403
3.518 127.36982 130.95453
3.52 135.19818 131.23387
3.522 137.26888 131.54587
3.524 90.47855 131.89502
3.526 123.63379 132.2866
3.528 129.23407 132.72691
3.53 123.50266 133.22342
3.532 119.04383 133.78512
3.534 135.92997 134.42288
3.536 115.97472 135.14989
3.538 141.34599 135.9824
3.54 118.65217 136.94061
3.542 136.5015 138.05022
3.544 144.89679 139.34492
3.546 154.37865 140.87097
3.548 150.39434 142.69564
3.55 164.64279 144.92247
3.552 154.89582 147.71713
3.554 152.2017 151.34777
3.556 195.48971 156.2401
3.558 144.19771 163.03978
3.56 171.39601 172.66147
3.562 219.7139 186.28957
3.564 231.68153 205.28825
3.566 279.10945 230.98708
3.568 322.41538 264.33323
3.57 318.33516 305.41827
3.572 353.20836 352.85691
3.574 346.1224 402.94022
3.576 314.14014 448.71469
3.578 378.68748 480.19639
3.58 362.863 487.91897
3.582 332.56015 469.09412
3.584 342.42461 429.96418
3.586 341.72893 381.04949
3.588 291.85718 331.3282
3.59 302.92197 286.2687
3.592 280.66477 248.58683
3.594 229.48561 218.60693
3.596 263.22862 195.94743
3.598 218.3897 179.45895
3.6 196.42845 167.7162
3.602 163.48958 159.43195
3.604 191.91938 153.53261
3.606 178.92253 149.22412
3.608 192.8056 145.96459
3.61 168.0386 143.40539
3.612 137.5417 141.32988
3.614 145.80265 139.60423
3.616 140.71645 138.14362
3.618 163.76384 136.89162
3.62 141.56102 135.80836
3.622 145.70353 134.86411
3.624 144.9331 134.03585
3.626 147.72433 133.30527
3.628 146.7494 132.65756
3.63 139.47863 132.0806
3.632 115.9787 131.56439
3.634 118.99413 131.10065
3.636 174.99808 130.68244
3.638 110.50619 130.30391
3.64 134.75546 129.96015
3.642 140.55495 129.64696
3.644 122.39411 129.36075
3.646 100.20965 129.09847
3.648 116.22376 128.85746
3.65 126.47318 128.63544
3.652 140.90982 128.43042
3.654 112.93022 128.24066
3.656 108.32717 128.06465
3.658 126.11537 127.90106
3.66 101.54813 127.74871
3.662 107.91159 127.60657
3.664 139.91704 127.47372
3.666 151.24897 127.34935
3.668 135.49367 127.23273
3.67 167.53473 127.12321
3.672 115.915 127.02021
3.674 121.2593 126.92321
3.676 135.92544 126.83175
3.678 124.52543 126.74539
3.68 114.91692 126.66376
3.682 139.21107 126.58651
3.684 122.10354 126.51334
3.686 140.39081 126.44395
3.688 120.61831 126.37808
3.69 93.8424 126.31551
3.692 130.8377 126.25602
3.694 145.70276 126.19941
3.696 112.70388 126.14549
3.698 166.25321 126.09412
3.7 119.39068 126.04513
3.702 116.72694 125.99838
3.704 122.68576 125.95375
3.706 139.82296 125.91112
3.708 109.23029 125.87038
3.71 139.13379 125.83143
3.712 135.19881 125.79417
3.714 116.24448 125.75853
3.716 139.38122 125.72441
3.718 126.98508 125.69175
3.72 147.17027 125.66048
3.722 127.52655 125.63053
3.724 126.61126 125.60185
3.726 127.18448 125.57438
3.728 140.34415 125.54807
3.73 120.90039 125.52286
3.732 127.41824 125.49873
3.734 121.89909 125.47561
3.736 121.6955 125.45349
3.738 145.84993 125.43231
3.74 153.02174 125.41205
3.742 112.71818 125.39268
3.744 128.42341 125.37416
3.746 120.38982 125.35647
3.748 132.88038 125.33959
3.75 129.51345 125.32348
3.752 125.2798 125.30813
3.754 112.98436 125.29352
3.756 126.17191 125.27962
3.758 128.77744 125.26642
3.76 112.9993 125.25391
3.762 110.44059 125.24206
3.764 130.80219 125.23086
3.766 109.57146 125.2203
3.768 144.04803 125.21037
3.77 118.78346 125.20105
3.772 137.08724 125.19234
3.774 98.66853 125.18422
3.776 107.19231 125.17669
3.778 114.97445 125.16973
3.78 117.9299 125.16334
3.782 146.92402 125.15752
3.784 153.66692 125.15225
3.786 142.59229 125.14753
3.788 106.09297 125.14336
3.79 142.74208 125.13973
3.792 124.70001 125.13664
3.794 165.06262 125.13409
3.796 143.8944 125.13207
3.798 135.90155 125.13057
3.8 141.18162 125.12961
3.802 130.64783 125.12917
3.804 150.86051 125.12927
3.806 157.38037 125.12989
3.808 135.62351 125.13103
3.81 124.46108 125.13271
3.812 146.68005 125.13491
3.814 137.77787 125.13765
3.816 118.04384 125.14092
3.818 134.38665 125.14473
3.82 124.80075 125.14907
3.822 118.86449 125.15396
3.824 130.68334 125.1594
3.826 124.22983 125.16538
3.828 101.93984 125.17193
3.83 117.54043 125.17903
3.832 118.5066 125.18671
3.834 123.8906 125.19495
3.836 101.36313 125.20378
3.838 111.69603 125.21319
3.84 124.30158 125.2232
3.842 136.88237 125.23381
3.844 118.70773 125.24504
3.846 121.00183 124.72975
3.848 128.57058 124.74544
3.85 141.47099 124.76174
3.852 134.0059 124.77866
3.854 104.25147 124.79622
3.856 128.51809 124.81442
3.858 141.72081 124.83328
3.86 135.3442 124.85282
3.862 116.34824 124.87303
3.864 114.71987 124.99768
3.866 123.61131 125.01979
3.868 127.98275 125.04263
3.87 126.21714 125.06623
3.872 117.56516 125.0906
3.874 132.06884 125.11575
3.876 131.38411 125.14171
3.878 153.09911 125.1685
3.88 126.96378 125.19613
3.882 124.77842 125.22463
3.884 148.13791 125.25402
3.886 120.40477 125.28432
3.888 141.35001 125.31556
3.89 95.16053 125.34777
3.892 106.41365 125.38096
3.894 149.03442 125.41518
3.896 130.76641 125.45044
3.898 118.2155 125.48678
3.9 137.37236 125.52423
3.902 131.88074 125.56282
3.904 104.36225 125.60259
3.906 163.90544 125.64357
3.908 86.09993 125.68581
3.91 119.55237 125.72933
3.912 133.6845 125.77419
3.914 148.66347 125.82042
3.916 135.39876 125.86808
3.918 141.08132 125.9172
3.92 105.83496 125.96785
3.922 112.90831 126.02006
3.924 121.96837 126.0739
3.926 133.24271 126.12943
3.928 133.55885 126.1867
3.93 131.9748 126.24578
3.932 94.37807 126.30673
3.934 127.37227 126.36963
3.936 147.71851 126.43455
3.938 115.75164 126.50157
3.94 155.07578 126.57077
3.942 129.36656 126.64223
3.944 134.24966 126.71605
3.946 140.35912 126.79233
3.948 130.76338 126.87116
3.95 117.95526 126.95266
3.952 139.08782 127.03694
3.954 135.36124 127.12412
3.956 136.80097 127.21432
3.958 150.01049 127.30769
3.96 126.85802 127.40437
3.962 123.08847 127.50451
3.964 132.42103 127.60827
3.966 113.26787 127.71584
3.968 124.72853 127.82738
3.97 156.14251 127.94311
3.972 145.99666 128.06323
3.974 125.76076 128.18796
3.976 118.83388 128.31756
3.978 150.14949 128.45227
3.98 152.03334 128.58437
3.982 130.79977 128.73021
3.984 135.81298 128.88206
3.986 111.15118 129.04026
3.988 124.4354 129.20519
3.99 127.61295 129.37723
3.992 98.08901 129.55684
3.994 129.76348 129.74447
3.996 153.26901 129.94063
3.998 135.11684 130.14588
4 128.79932 130.36081
4.002 143.72526 130.58609
4.004 146.21323 130.82241
4.006 128.78737 131.07057
4.008 124.80267 131.33141
4.01 129.49093 131.60588
4.012 119.11068 131.89502
4.014 126.34254 132.19995
4.016 129.44129 132.52193
4.018 128.39951 132.86237
4.02 137.48344 133.22281
4.022 142.2433 133.60497
4.024 164.64943 134.01077
4.026 144.53887 134.44237
4.028 162.7362 134.90218
4.03 134.1311 135.39292
4.032 143.45365 135.91766
4.034 154.94515 136.47987
4.036 118.70477 137.08352
4.038 160.19908 137.7331
4.04 182.63464 138.43379
4.042 138.85272 139.19153
4.044 154.30459 140.01318
4.046 158.20292 140.90669
4.048 114.44921 141.88133
4.05 155.81524 142.94795
4.052 151.30957 144.11932
4.054 176.48149 145.41056
4.056 164.09114 146.83969
4.058 161.44164 148.42838
4.06 177.84582 150.203
4.062 220.5802 152.19622
4.064 178.69548 154.44958
4.066 210.74745 157.01799
4.068 236.6766 159.97742
4.07 233.61346 163.43828
4.072 242.01358 167.56752
4.074 245.02048 172.62291
4.076 236.53606 179.00182
4.078 299.49955 187.30282
4.08 287.78233 198.39105
4.082 329.70073 213.44731
4.084 369.21913 233.97024
4.086 390.28743 261.69512
4.088 424.08085 298.39929
4.09 470.56899 345.58329
4.092 469.66511 404.03962
4.094 519.34016 473.32062
4.096 533.81039 551.06899
4.098 544.07602 632.12676
4.1 570.85622 707.56624
4.102 571.97965 764.74704
4.104 551.6634 790.58323
4.106 542.2739 778.23034
4.108 528.8352 731.35256
4.11 532.64406 661.85139
4.112 556.42567 582.94975
4.114 461.09516 504.84516
4.116 463.71164 433.84724
4.118 462.84323 373.14808
4.12 387.18691 323.76041
4.122 375.09834 285.25066
4.124 332.61536 256.31175
4.126 316.54831 235.22919
4.128 266.80183 220.23914
4.13 268.17511 209.76363
4.132 256.11734 202.52649
4.134 208.11495 197.57496
4.136 228.65104 194.24277
4.138 256.06057 192.08811
4.14 192.99581 190.82983
4.142 237.76106 190.29456
4.144 182.29285 190.37822
4.146 186.27225 191.02077
4.148 200.84585 192.19093
4.15 160.85166 193.87759
4.152 193.06651 196.08538
4.154 206.79232 198.8327
4.156 207.57353 202.15124
4.158 211.1082 206.08666
4.16 232.78949 210.70003
4.162 245.23187 216.07039
4.164 231.82375 222.29873
4.166 301.36918 229.51439
4.168 319.45058 237.8894
4.17 321.77256 247.6417
4.172 410.68622 259.08926
4.174 392.53053 272.68901
4.176 485.95749 289.12911
4.178 539.11042 309.46537
4.18 625.43008 335.31523
4.182 723.08351 369.10471
4.184 803.39112 414.33705
4.186 914.72011 475.8114
4.188 1065.1368 559.67778
4.19 1080.55484 673.18725
4.192 1306.76802 824.00888
4.194 1567.55537 1019.04849
4.196 1498.87915 1262.79225
4.198 1812.57714 1555.2337
4.2 2063.26959 1889.32455
4.202 2036.69944 2247.68548
4.204 2282.27108 2598.70374
4.206 2593.28732 2894.61196
4.208 2339.17805 3078.45885
4.21 2437.27508 3105.41794
4.212 2603.64341 2967.97605
4.214 2182.50334 2701.05511
4.216 2115.35377 2361.01557
4.218 2078.09231 2000.30514
4.22 1597.69012 1655.77937
4.222 1362.56917 1348.85232
4.224 1323.02178 1089.38096
4.226 976.22153 879.25568
4.228 848.16341 715.14422
4.23 784.55574 590.68959
4.232 608.1406 498.29936
4.234 572.0523 430.4836
4.236 481.98333 380.69316
4.238 385.34758 343.69454
4.24 359.38333 315.59503
4.242 339.60233 293.65974
4.244 251.94163 276.0483
4.246 249.78591 261.55527
4.248 248.20333 249.39779
4.25 217.20332 239.06189
4.252 237.20064 230.20123
4.254 208.30583 222.57516
4.256 192.59775 216.0138
4.258 207.06784 210.4003
4.26 165.2725 205.66416
4.262 199.85789 201.78162
4.264 211.08187 198.78029
4.266 173.3254 196.74503
4.268 162.74888 195.82111
4.27 177.78918 196.20967
4.272 172.74056 198.15037
4.274 174.6054 201.88731
4.276 181.20424 207.61759
4.278 178.04495 215.42451
4.28 178.58021 225.19648
4.282 209.13344 236.52606
4.284 242.76549 248.57798
4.286 196.6209 259.94973
4.288 210.03394 268.6393
4.29 208.19025 272.6274
4.292 183.21598 270.57647
4.294 214.75185 262.72743
4.296 199.42543 250.69292
4.298 195.59939 236.56673
4.3 212.91562 222.14036
4.302 177.90099 208.62237
4.304 204.60049 196.69266
4.306 192.94742 186.64213
4.308 150.72955 178.4941
4.31 174.15794 172.09826
4.312 187.74143 167.20686
4.314 170.1279 163.53633
4.316 175.74613 160.81254
4.318 159.59346 158.88034
4.32 127.23721 157.38778
4.322 182.69212 156.27681
4.324 154.7902 155.48488
4.326 147.40999 154.87571
4.328 172.465 154.44194
4.33 132.59267 154.1565
4.332 146.08651 154.00244
4.334 184.97579 153.96932
4.336 158.81862 154.05098
4.338 188.8044 154.24425
4.34 191.05746 154.54821
4.342 170.80314 154.96384
4.344 206.33312 155.4938
4.346 211.02419 156.1424
4.348 203.98786 156.91562
4.35 215.85096 157.82118
4.352 204.16452 158.8687
4.354 176.38993 160.06989
4.356 214.36056 161.43884
4.358 196.47298 162.99236
4.36 147.71566 164.75043
4.362 180.30469 166.73675
4.364 176.53095 168.97947
4.366 166.23589 171.51206
4.368 192.80372 174.37453
4.37 173.43288 177.61501
4.372 155.02293 181.29206
4.374 195.14325 185.47813
4.376 188.40752 190.26525
4.378 193.11215 195.77434
4.38 236.17511 202.17111
4.382 249.50754 209.69234
4.384 225.67641 218.68786
4.386 273.42302 229.68388
4.388 290.21212 243.47163
4.39 304.39083 261.21951
4.392 400.17334 284.59637
4.394 384.63663 315.87795
4.396 452.25369 357.99134
4.398 520.61743 414.44019
4.4 556.90578 489.05471
4.402 672.37805 585.53105
4.404 837.84022 706.75859
4.406 852.1517 853.9576
4.408 1078.12282 1025.62522
4.41 1207.48827 1216.20186
4.412 1251.11502 1414.35904
4.414 1483.18896 1601.34032
4.416 1562.05902 1751.37542
4.418 1647.44175 1837.51545
4.42 1847.15915 1842.82538
4.422 1745.4742 1768.85834
4.424 1619.07837 1633.21254
4.426 1517.31779 1459.65916
4.428 1247.09415 1270.24878
4.43 1072.10623 1082.40731
4.432 970.13114 908.46055
4.434 760.84873 755.79773
4.436 654.11943 627.5376
4.438 549.96341 523.59059
4.44 466.07479 441.79155
4.442 445.47368 378.88035
4.444 386.67932 331.25175
4.446 288.15786 295.46601
4.448 326.31768 268.54239
4.45 305.61939 248.07787
4.452 244.55071 232.24328
4.454 231.78533 219.70903
4.456 248.47413 209.54221
4.458 173.66593 201.10365
4.46 188.12886 193.96005
4.462 204.2493 187.81648
4.464 173.49018 182.46846
4.466 193.15828 177.76982
4.468 196.14512 173.6122
4.47 137.52352 169.91226
4.472 181.46367 166.6039
4.474 171.30004 163.63337
4.476 144.17089 160.95623
4.478 194.11946 158.53525
4.48 141.00074 156.33896
4.482 114.60285 154.34061
4.484 167.96439 152.51868
4.486 149.00504 150.85071
4.488 160.95898 149.3211
4.49 165.82734 147.9151
4.492 123.69307 146.61991
4.494 128.24837 145.42434
4.496 151.20718 144.31857
4.498 110.88739 143.29398
4.5 151.2145 142.34299
4.502 124.23498 141.45886
4.504 109.89733 140.63564
4.506 146.74064 139.86803
4.508 116.50645 139.15131
4.51 152.75874 138.48126
4.512 130.61022 137.8541
4.514 141.47833 137.26644
4.516 120.80702 136.71523
4.518 132.79534 136.19773
4.52 119.67605 135.71145
4.522 119.8428 135.25415
4.524 147.17021 134.82379
4.526 132.68724 134.41854
4.528 136.9296 134.03672
4.53 150.98549 133.67681
4.532 101.60933 133.33741
4.534 131.91613 133.01727
4.536 111.70182 132.71523
4.538 116.59715 132.43023
4.54 143.59098 132.16131
4.542 117.6919 131.90758
4.544 121.0291 131.66825
4.546 134.96679 131.44257
4.548 120.77205 131.22987
4.55 100.11588 131.02952
4.552 129.26166 130.84097
4.554 152.44224 130.6637
4.556 149.68175 130.49723
4.558 142.49914 130.34113
4.56 137.28207 130.19502
4.562 108.18276 130.05854
4.564 82.35148 129.93136
4.566 108.5248 129.81321
4.568 104.68268 129.70383
4.57 97.06156 129.60297
4.572 109.04677 129.51045
4.574 101.26811 129.42609
4.576 123.86352 129.34974
4.578 141.00054 129.28126
4.58 102.73212 129.22057
4.582 138.23356 129.16758
4.584 104.90918 129.12223
4.586 145.09778 129.0845
4.588 150.26856 129.05437
4.59 145.94418 129.03185
4.592 115.87872 129.01699
4.594 103.61419 129.00983
4.596 90.46613 129.01048
4.598 144.93339 129.01902
4.6 147.51381 129.03561
4.602 118.52453 129.06039
4.604 135.98934 129.09356
4.606 130.25825 129.13533
4.608 132.41914 129.18597
4.61 128.51873 129.24574
4.612 112.60296 129.31497
4.614 150.86783 129.39402
4.616 108.81335 129.48328
4.618 134.49124 129.58321
4.62 140.00498 129.69428
4.622 117.91084 129.81705
4.624 135.0127 129.95211
4.626 142.34482 130.10013
4.628 107.70878 130.26186
4.63 97.09604 130.43808
4.632 124.81874 130.62971
4.634 139.19883 130.83851
4.636 115.49691 131.06401
4.638 135.70487 131.3082
4.64 147.03744 131.57241
4.642 95.83479 131.85814
4.644 125.88628 132.16701
4.646 140.99511 132.50086
4.648 126.04459 132.86171
4.65 154.62527 133.25184
4.652 167.62424 133.67377
4.654 114.42445 134.13032
4.656 139.11064 134.62468
4.658 140.72812 135.1604
4.66 141.21644 135.76088
4.662 149.07109 136.39198
4.664 120.85727 137.07812
4.666 84.13439 137.82513
4.668 147.50419 138.63966
4.67 138.89104 139.52928
4.672 152.04137 140.50269
4.674 142.35404 141.56986
4.676 132.6694 142.74234
4.678 163.19403 144.03349
4.68 138.96559 145.45887
4.682 128.03206 147.03668
4.684 169.06448 148.78836
4.686 176.78461 150.73938
4.688 135.73656 152.92035
4.69 172.82029 155.36875
4.692 203.51517 158.13161
4.694 209.11947 161.26988
4.696 248.48164 164.87152
4.698 219.33836 169.03982
4.7 230.14686 173.94679
4.702 238.17438 179.8372
4.704 284.08825 187.07277
4.706 285.344 196.18156
4.708 333.18403 207.9148
4.71 377.85995 223.30191
4.712 403.42606 243.68746
4.714 453.71378 270.72752
4.716 507.27283 306.31999
4.718 541.96026 352.44783
4.72 589.81896 410.92542
4.722 635.34109 483.05413
4.724 652.40235 569.20259
4.726 677.18503 668.31462
4.728 768.68616 777.31187
4.73 790.72083 890.34587
4.732 796.90126 998.0293
4.734 919.41385 1087.34475
4.736 856.6491 1143.62886
4.738 829.04023 1155.43546
4.74 886.87443 1120.05963
4.742 879.89974 1045.09762
4.744 840.85047 944.43788
4.746 788.84409 832.4421
4.748 758.02461 720.40803
4.75 662.6325 615.83956
4.752 589.16133 523.05567
4.754 604.88109 444.00715
4.756 515.21142 379.07049
4.758 453.80934 327.09628
4.76 428.43812 286.59077
4.762 321.80046 255.61262
4.764 288.76087 232.19402
4.766 288.32768 214.54489
4.768 272.35672 201.16321
4.77 243.97984 190.86775
4.772 223.34951 182.77768
4.774 223.29482 176.26365
4.776 178.44148 170.89005
4.778 208.17354 166.36108
4.78 190.98208 162.47672
4.782 166.66125 159.10017
4.784 176.03117 156.13535
4.786 146.44664 153.51226
4.788 103.89428 151.17788
4.79 139.22581 149.09056
4.792 149.85712 147.21662
4.794 108.98049 145.52828
4.796 153.88425 144.00227
4.798 143.20109 142.61889
4.8 107.40701 141.36137
4.802 132.71374 140.21532
4.804 103.68286 139.16837
4.806 137.59134 138.2098
4.808 113.12686 137.33033
4.81 124.80248 136.52184
4.812 114.76786 135.77728
4.814 146.74054 135.09042
4.816 98.63114 134.45582
4.818 113.62993 133.86866
4.82 107.73144 133.32468
4.822 127.17218 132.82012
4.824 113.69975 132.35161
4.826 126.40412 131.91616
4.828 123.22433 131.51112
4.83 133.28344 131.13409
4.832 85.07641 130.78294
4.834 141.47789 130.45575
4.836 111.25071 130.15079
4.838 128.50436 129.89171
4.84 107.81517 129.62682
4.842 139.46271 129.37995
4.844 99.04643 129.14997
4.846 134.4231 128.93585
4.848 131.39738 128.73665
4.85 124.65427 128.55155
4.852 105.11628 128.37978
4.854 143.74226 128.22067
4.856 132.79424 128.07359
4.858 113.65002 127.93799
4.86 128.62962 127.81339
4.862 108.81251 127.69932
4.864 114.87178 127.59541
4.866 101.75162 127.5013
4.868 121.00849 127.41669
4.87 103.53226 127.34131
4.872 119.17047 127.27493
4.874 131.31426 127.21736
4.876 136.15887 127.16845
4.878 110.83682 127.12807
4.88 126.55251 127.09614
4.882 137.38367 127.07261
4.884 94.26964 127.05743
4.886 126.49965 127.05064
4.888 118.52216 127.05226
4.89 102.5681 126.99766
4.892 131.30192 127.01669
4.894 139.74246 127.04446
4.896 131.69237 127.08114
4.898 115.57395 127.12696
4.9 86.72828 127.18215
4.902 103.47392 127.24704
4.904 108.61696 127.32194
4.906 131.63888 127.40727
4.908 143.58453 127.50346
4.91 90.90564 127.61102
4.912 130.82513 127.73049
4.914 100.00093 127.86253
4.916 78.84796 128.00782
4.918 128.02638 128.16716
4.92 119.68122 128.34143
4.922 131.15092 128.5316
4.924 118.38145 128.73876
4.926 116.96057 128.96414
4.928 104.06553 129.20909
4.93 137.16864 129.47513
4.932 119.46044 129.76396
4.934 117.32202 130.07749
4.936 138.18425 130.41784
4.938 110.86244 130.78743
4.94 137.18356 131.18895
4.942 129.75445 131.62546
4.944 130.43299 132.10041
4.946 151.22892 132.61772
4.948 140.61209 133.18184
4.95 135.98611 133.79785
4.952 135.44544 134.47157
4.954 106.1904 135.20966
4.956 132.50388 136.0198
4.958 152.56616 136.91089
4.96 145.69476 137.89324
4.962 151.00839 138.97892
4.964 139.62457 140.18215
4.966 139.09538 141.51986
4.968 145.3018 143.01253
4.97 157.7319 144.68548
4.972 130.80165 146.57094
4.974 177.30384 148.71136
4.976 176.68835 151.16474
4.978 201.53501 154.01284
4.98 159.41301 157.37355
4.982 197.38016 161.41837
4.984 239.56567 166.39552
4.986 185.95441 172.65801
4.988 234.13415 180.69364
4.99 266.32414 191.15131
4.992 278.45126 204.85437
4.994 312.07798 222.7898
4.996 346.13339 246.06114
4.998 364.84762 275.79636
5 385.00745 313.00783
5.002 390.54763 358.40903
5.004 511.99239 412.19666
5.006 563.30054 473.80058
5.008 566.20818 541.28681
5.01 603.64344 612.18075
5.012 638.96457 681.24911
5.014 664.04711 741.50183
5.016 722.67781 784.56558
5.018 708.4753 802.86937
5.02 740.41928 792.76435
5.022 695.01142 756.3564
5.024 709.98208 700.39038
5.026 641.20632 633.25469
5.028 626.42557 562.43618
5.03 547.56422 493.46263
5.032 511.61914 429.91644
5.034 457.97758 373.82047
5.036 411.91808 326.03008
5.038 368.25092 286.55066
5.04 335.75863 254.80005
5.042 293.57793 229.83616
5.044 294.49235 210.55151
5.046 279.16717 195.82687
5.048 234.72255 184.63759
5.05 213.09939 176.11346
5.052 231.78723 169.55953
5.054 205.93897 164.44932
5.056 201.04023 160.40234
5.058 196.55688 157.15574
5.06 205.54756 154.53676
5.062 171.51397 152.43955
5.064 181.76306 150.80743
5.066 159.65756 149.61979
5.068 153.72438 148.8821
5.07 145.66854 148.61753
5.072 137.9563 148.85842
5.074 136.13576 149.63682
5.076 138.71317 150.97375
5.078 180.14407 152.86715
5.08 175.01164 155.27858
5.082 130.99097 158.11775
5.084 161.19985 161.22374
5.086 172.87443 164.34377
5.088 152.82341 167.12116
5.09 174.94571 169.12091
5.092 182.24199 169.92575
5.094 202.02866 169.28769
5.096 145.92021 167.24145
5.098 169.37119 164.08475
5.1 152.88082 160.23201
5.102 165.67536 156.11813
5.104 148.96472 152.05279
5.106 147.43447 148.25397
5.108 127.53095 144.85216
5.11 155.6946 141.9111
5.112 134.30149 139.44539
5.114 112.04855 137.43487
5.116 118.20625 135.83711
5.118 123.76183 134.59824
5.12 155.79478 133.66182
5.122 136.19447 132.97545
5.124 113.98187 132.49465
5.126 122.3113 132.18445
5.128 150.08364 132.01902
5.13 115.08783 131.97993
5.132 123.3806 132.0536
5.134 130.75966 132.22856
5.136 121.6324 132.49252
5.138 134.71082 132.82954
5.14 143.25644 133.21702
5.142 128.78843 133.62274
5.144 133.75565 134.00331
5.146 122.34915 134.30752
5.148 123.49009 134.48798
5.15 142.225 134.5185
5.152 122.27756 134.40593
5.154 144.64884 134.18646
5.156 151.14498 133.90971
5.158 149.4673 133.62297
5.16 123.37799 133.3631
5.162 124.24331 133.15542
5.164 154.40812 133.01551
5.166 126.4276 132.95159
5.168 132.01896 132.96643
5.17 133.19259 133.059
5.172 149.47851 133.22588
5.174 141.22911 133.46244
5.176 121.68996 133.76388
5.178 96.73375 134.12598
5.18 129.49375 134.54559
5.182 140.27485 135.02092
5.184 123.32216 135.55155
5.186 140.38247 136.13842
5.188 118.11579 136.78372
5.19 119.54335 137.49083
5.192 123.61802 138.26415
5.194 159.67494 139.10914
5.196 132.51244 140.03231
5.198 131.74543 141.04126
5.2 122.05047 142.14527
5.202 140.89931 143.35363
5.204 121.30101 144.67857
5.206 128.07145 146.13372
5.208 127.77282 147.73493
5.21 122.58653 149.50069
5.212 154.1729 151.45276
5.214 122.80041 153.6171
5.216 137.49322 156.02512
5.218 166.52896 158.71573
5.22 149.029 161.73851
5.222 146.58907 165.15863
5.224 167.35226 169.06457
5.226 123.22611 173.57954
5.228 150.22528 178.87818
5.23 180.4485 185.20932
5.232 192.23223 192.92547
5.234 147.70867 202.51778
5.236 229.49661 214.65335
5.238 247.21395 230.20845
5.24 249.37044 250.28801
5.242 273.15503 276.21933
5.244 308.81275 309.50664
5.246 324.34959 351.73572
5.248 392.69145 404.26603
5.25 481.93075 468.65034
5.252 580.94399 545.43635
5.254 700.79772 634.48887
5.256 766.52397 734.44781
5.258 972.07815 842.36874
5.26 1150.31486 953.10377
5.262 1221.39867 1059.02381
5.264 1367.60771 1150.26451
5.266 1444.38359 1216.22821
5.268 1401.07811 1248.29382
5.27 1474.43406 1242.45822
5.272 1306.02504 1200.28898
5.274 1165.67109 1127.9207
5.276 1069.788 1034.54336
5.278 877.31173 928.85587
5.28 724.6223 819.92139
5.282 693.90389 714.55967
5.284 496.06707 617.4439
5.286 511.81245 531.28846
5.288 447.36329 457.24345
5.29 327.70316 395.30775
5.292 325.71824 344.69341
5.294 271.08753 304.13175
5.296 287.05255 272.12301
5.298 250.7809 247.12914
5.3 193.75626 227.70956
5.302 189.47639 212.60308
5.304 229.86338 200.76413
5.306 141.30015 191.36441
5.308 160.34095 183.77239
5.31 165.00197 177.52137
5.312 156.78031 172.27461
5.314 157.72688 167.79282
5.316 139.34024 163.90692
5.318 121.54256 160.499
5.32 160.32337 157.47802
5.322 132.84278 154.78208
5.324 154.3172 152.37925
5.326 137.46248 150.19741
5.328 143.22983 148.22245
5.33 167.5866 146.42877
5.332 126.35958 144.79492
5.334 121.83235 143.3026
5.336 136.43991 141.93612
5.338 128.64125 140.68195
5.34 138.39517 139.52829
5.342 134.95787 138.46488
5.344 107.18412 137.48271
5.346 153.51093 136.57389
5.348 120.26598 135.73145
5.35 137.18769 134.94923
5.352 163.32502 134.22178
5.354 137.64809 133.54425
5.356 117.77294 132.91233
5.358 150.26903 132.32215
5.36 136.08891 131.77028
5.362 123.12103 131.25362
5.364 115.13604 130.76939
5.366 148.80169 130.31508
5.368 123.86415 129.88846
5.37 103.38702 129.48749
5.372 126.14038 129.11032
5.374 150.28306 128.75529
5.376 147.57671 128.4209
5.378 129.15459 128.10578
5.38 127.55759 127.8087
5.382 112.25617 127.52852
5.384 134.9675 127.26424
5.386 135.5722 127.01493
5.388 137.12122 126.77976
5.39 142.14313 126.55799
5.392 133.28649 126.34894
5.394 152.24577 126.15202
5.396 129.14971 125.9667
5.398 125.85241 125.79251
5.4 154.91111 125.62907
5.402 118.06814 125.47603
5.404 138.45199 125.54045
5.406 124.45251 125.40827
5.408 158.2257 125.28594
5.41 108.47577 125.17346
5.412 148.28288 125.07091
5.414 131.8815 124.97852
5.416 129.00412 124.89674
5.418 99.66962 124.82626
5.42 129.54184 124.76821
5.422 136.55857 124.72427
5.424 146.9957 124.69696
5.426 154.22989 124.68996
5.428 109.47811 124.70848
5.43 143.42928 124.75972
5.432 136.99848 124.85322
5.434 106.67082 125.00116
5.436 123.83285 125.21841
5.438 168.62175 125.52204
5.44 129.45882 125.93046
5.442 126.27565 126.46182
5.444 144.05295 127.13183
5.446 139.73345 127.95101
5.448 109.30791 128.92156
5.45 143.87813 130.03374
5.452 143.01549 131.26181
5.454 96.59989 132.55894
5.456 156.64011 133.85159
5.458 162.30905 135.03561
5.46 128.03889 135.98083
5.462 155.05024 136.55272
5.464 157.89779 136.65218
5.466 107.80942 136.25532
5.468 170.65196 135.42454
5.47 140.92386 134.28147
5.472 131.64329 132.9632
5.474 148.24271 131.58941
5.476 139.39605 130.2782
5.478 127.3639 129.03246
5.48 127.75237 127.91661
5.482 133.85281 126.94804
5.484 138.50575 126.13016
5.486 152.42047 125.45625
5.488 123.45393 124.9128
5.49 142.94105 124.48249
5.492 96.22455 124.14665
5.494 107.6351 123.88719
5.496 107.27465 123.68786
5.498 131.29708 123.53489
5.5 134.37422 123.41721
5.502 138.07478 123.32628
5.504 102.14294 123.25572
5.506 137.7767 123.20093
5.508 149.32666 123.15863
5.51 140.25917 123.12653
5.512 125.25671 123.10302
5.514 137.03684 123.08697
5.516 117.00236 123.07756
5.518 141.26886 123.07421
5.52 112.81703 123.07645
5.522 145.12476 123.08396
5.524 126.04668 123.09647
5.526 131.52737 123.11378
5.528 121.74981 123.13573
5.53 124.10743 123.16221
5.532 113.03652 123.19315
5.534 126.34522 123.22849
5.536 129.92908 123.26823
5.538 135.77656 123.31236
5.54 136.50962 123.36092
5.542 127.20633 123.4141
5.544 124.75307 123.47171
5.546 101.0807 123.53398
5.548 123.63369 123.60105
5.55 146.31915 123.67305
5.552 105.37359 123.75015
5.554 151.57845 123.83255
5.556 132.54512 123.92046
5.558 111.28182 124.01414
5.56 154.88488 124.11386
5.562 112.77437 124.21993
5.564 130.46598 124.3327
5.566 153.69313 124.45254
5.568 102.47736 124.57989
5.57 128.32318 124.71521
5.572 151.32931 124.85903
5.574 102.64886 125.01193
5.576 121.48345 125.17457
5.578 141.62778 125.34767
5.58 123.91346 125.53205
5.582 128.563 125.72863
5.584 129.16356 125.93846
5.586 106.7233 126.16272
5.588 142.11171 126.40281
5.59 134.98409 126.66035
5.592 123.58349 126.9373
5.594 138.68833 127.23765
5.596 162.97928 127.56109
5.598 138.10729 127.91292
5.6 134.54165 128.29777
5.602 124.74186 128.72149
5.604 132.92514 129.19138
5.606 134.05961 129.71646
5.608 146.53037 130.30759
5.61 156.77568 130.9775
5.612 120.99229 131.63719
5.614 130.4346 132.51004
5.616 127.09333 133.50899
5.618 119.9334 134.6515
5.62 158.78882 135.95525
5.622 178.12491 137.43822
5.624 151.25762 139.11917
5.626 155.99783 141.01874
5.628 166.2071 143.16079
5.63 144.66045 145.57462
5.632 144.43104 148.29911
5.634 216.27485 151.39167
5.636 180.03675 154.94446
5.638 162.80155 159.10453
5.64 188.88953 164.08615
5.642 207.96528 170.16139
5.644 173.91143 177.62688
5.646 213.57768 186.75755
5.648 243.89483 197.76002
5.65 198.93762 210.73034
5.652 253.94863 225.61344
5.654 271.15667 242.15903
5.656 248.27192 259.86813
5.658 277.25335 277.92869
5.66 318.27759 295.15825
5.662 240.36019 310.01287
5.664 282.43022 320.76437
5.666 303.10906 325.90943
5.668 241.37596 324.6898
5.67 291.88733 317.40654
5.672 283.95528 305.29185
5.674 227.10205 290.04503
5.676 288.80811 273.35434
5.678 273.99026 256.61993
5.68 274.26895 240.88065
5.682 269.43649 226.84871
5.684 215.17122 215.07043
5.686 225.35454 205.58961
5.688 278.71482 198.57902
5.69 226.96581 193.98282
5.692 247.59524 191.64258
5.694 241.88607 191.31957
5.696 200.93869 192.70984
5.698 243.80171 195.44984
5.7 198.3347 199.11168
5.702 200.86877 203.19287
5.704 267.07607 207.11728
5.706 246.73523 210.2766
5.708 239.5445 212.13511
5.71 257.25214 212.3735
5.712 201.14267 210.98988
5.714 231.62944 208.29579
5.716 238.58615 204.73688
5.718 173.89433 200.8275
5.72 216.93673 196.99979
5.722 199.78582 193.58413
5.724 169.48052 190.81516
5.726 193.09131 188.85153
5.728 163.26338 187.79688
5.73 193.15882 187.71927
5.732 191.8554 188.67043
5.734 166.95302 190.70639
5.736 224.47992 193.9107
5.738 184.62409 198.42061
5.74 203.97004 204.4562
5.742 190.6178 212.35187
5.744 186.94763 222.58822
5.746 249.99036 235.82105
5.748 226.25289 252.90175
5.75 264.95627 274.8818
5.752 304.38857 302.99253
5.754 302.20161 338.5915
5.756 351.8714 383.06948
5.758 403.04817 437.71609
5.76 451.34061 503.54771
5.762 526.491 581.10488
5.764 604.82043 670.22586
5.766 647.37639 769.79391
5.768 859.28067 877.44254
5.77 995.41285 989.20125
5.772 1092.1156 1099.11722
5.774 1307.31564 1199.05101
5.776 1404.7045 1279.10127
5.778 1494.23715 1329.20641
5.78 1591.13634 1341.92416
5.782 1567.88559 1315.18802
5.784 1455.49461 1253.18865
5.786 1273.43029 1164.6796
5.788 1168.70924 1059.97826
5.79 934.13555 948.49871
5.792 825.25639 837.60644
5.794 711.18701 732.49513
5.796 620.9365 636.50282
5.798 515.35844 551.49866
5.8 486.97059 478.2164
5.802 365.50574 416.53086
5.804 359.62859 365.6991
5.806 321.78753 324.57768
5.808 300.34284 291.81436
5.81 256.15507 266.00627
5.812 238.92024 245.81841
5.814 236.07619 230.06055
5.816 218.20922 217.72654
5.818 187.12354 208.00332
5.82 166.49029 200.25914
5.822 191.69073 194.01971
5.824 191.51858 188.93986
5.826 175.58499 184.80147
5.828 180.80447 181.38732
5.83 153.37825 178.61609
5.832 176.55944 176.42743
5.834 158.42298 174.79984
5.836 171.87888 173.74753
5.838 182.78206 173.32048
5.84 157.86025 173.6065
5.842 204.59883 174.73378
5.844 197.86341 176.87228
5.846 207.72832 180.2319
5.848 223.83113 185.0556
5.85 206.26338 191.60588
5.852 198.78063 200.14355
5.854 278.52718 210.89888
5.856 259.1713 224.03605
5.858 236.40376 239.6123
5.86 276.56195 257.53255
5.862 265.07175 277.49815
5.864 237.2402 298.94621
5.866 294.11262 320.97823
5.868 289.77249 342.29188
5.87 234.83026 361.16699
5.872 286.68661 375.60092
5.874 331.13718 383.67871
5.876 320.60049 384.12522
5.878 325.51406 376.77344
5.88 345.58896 362.63453
5.882 344.17682 343.51381
5.884 571.73376 321.44111
5.886 755.13032 298.23176
5.888 498.76705 275.29391
5.89 348.0594 253.61647
5.892 292.72043 233.83217
5.894 257.28853 216.29158
5.896 258.50985 201.12664
5.898 267.36623 188.30369
5.9 211.87981 177.66994
5.902 165.2004 168.9953
5.904 173.81653 162.00931
5.906 205.93038 156.43171
5.908 213.47791 151.99536
5.91 176.52402 148.4613
5.912 195.19472 145.62647
5.914 171.08618 143.3257
5.916 187.61424 141.42945
5.918 193.03962 139.83926
5.92 180.28667 138.4821
5.922 214.47834 137.30476
5.924 168.90493 136.26884
5.926 188.07212 135.34668
5.928 195.08553 134.51816
5.93 176.61044 133.76837
5.932 179.80157 133.08603
5.934 187.73942 132.3945
5.936 164.6496 131.82312
5.938 161.8425 131.29733
5.94 139.0863 130.81233
5.942 153.45908 130.3638
5.944 154.74739 129.94822
5.946 122.96279 129.56246
5.948 143.72647 129.20378
5.95 126.16492 128.86975
5.952 123.61943 128.55823
5.954 144.64787 128.26733
5.956 137.98722 127.99535
5.958 132.69875 127.74078
5.96 146.28947 127.50228
5.962 98.75908 127.27862
5.964 139.01651 127.06871
5.966 109.97973 126.87158
5.968 131.66023 126.68632
5.97 110.03608 126.51215
5.972 122.56103 126.34832
5.974 132.85955 126.19417
5.976 151.61857 126.04909
5.978 148.80366 125.91254
5.98 143.43621 125.78401
5.982 112.95593 125.66304
5.984 98.65575 125.5492
5.986 99.83942 125.44211
5.988 97.9212 125.3414
5.99 124.54096 125.24676
5.992 109.82029 125.15787
5.994 138.51796 125.07446
5.996 112.27873 124.99627
5.998 66.5341 124.92306
6 126.13593 124.8546
6.002 103.74095 124.79071
6.004 97.18812 124.73118
6.006 151.9387 124.67584
6.008 118.86127 124.62453
6.01 116.22835 124.5771
6.012 155.00985 124.5334
6.014 113.79279 124.49331
6.016 104.77455 124.45671
6.018 124.92292 124.42348
6.02 123.97785 124.38978
6.022 107.98418 124.36301
6.024 120.66183 124.33932
6.026 113.27664 124.31863
6.028 143.81292 124.30087
6.03 105.58372 124.28595
6.032 138.50669 124.27382
6.034 131.19214 124.26441
6.036 131.54959 124.25767
6.038 146.66185 124.25355
6.04 127.82036 124.252
6.042 133.61515 124.25297
6.044 142.47826 124.25642
6.046 124.78877 124.26233
6.048 131.27145 124.27066
6.05 143.53925 124.28137
6.052 108.38263 124.29444
6.054 132.98364 124.30986
6.056 120.03076 124.32759
6.058 127.76796 124.34763
6.06 120.27834 124.36996
6.062 122.89558 124.39456
6.064 120.45132 124.42143
6.066 147.36699 124.45056
6.068 117.99275 124.48195
6.07 123.9174 124.5156
6.072 129.96479 124.5515
6.074 110.91004 124.58966
6.076 117.74499 124.63009
6.078 93.31298 124.67279
6.08 126.20221 124.71778
6.082 97.63491 124.76505
6.084 126.35371 124.8142
6.086 131.90921 124.86612
6.088 121.0831 124.92037
6.09 131.3488 124.977
6.092 118.2783 125.03602
6.094 145.60719 125.09744
6.096 135.74687 125.16131
6.098 130.23416 125.22765
6.1 145.30156 125.2965
6.102 111.34969 125.36788
6.104 112.71224 125.44183
6.106 111.7517 125.5184
6.108 113.8321 125.59763
6.11 145.61985 125.67955
6.112 135.9712 125.76422
6.114 118.10009 125.85169
6.116 101.46837 125.94201
6.118 121.62651 126.03523
6.12 102.06566 126.13142
6.122 110.9208 126.23062
6.124 110.68943 126.33292
6.126 120.57544 126.43837
6.128 121.47934 126.54704
6.13 96.68753 126.6595
6.132 119.97916 126.77485
6.134 122.2413 126.89367
6.136 125.97308 127.01603
6.138 135.47209 127.14202
6.14 125.60832 127.27173
6.142 112.20721 127.40527
6.144 113.16276 127.54273
6.146 113.84148 127.68423
6.148 127.2342 127.82987
6.15 117.73935 127.97977
6.152 115.96663 128.13405
6.154 118.75194 128.29285
6.156 98.27947 128.45628
6.158 59.63876 128.6245
6.16 124.53128 128.79765
6.162 107.95844 128.97588
6.164 136.76227 129.15936
6.166 153.12562 129.34824
6.168 118.66925 129.54272
6.17 118.09429 129.74296
6.172 114.45673 129.94916
6.174 126.33973 130.16156
6.176 110.25362 130.38034
6.178 98.14447 130.60572
6.18 115.57386 130.83794
6.182 138.94174 131.07724
6.184 137.4946 131.32387
6.186 150.94077 131.5781
6.188 149.40619 131.84023
6.19 97.89068 132.11054
6.192 128.57365 132.38935
6.194 136.80622 132.67698
6.196 132.08023 132.97379
6.198 116.47121 133.28014
6.2 122.69313 133.59641
6.202 128.71708 133.92301
6.204 125.38864 134.458
6.206 137.8881 134.80719
6.208 126.56489 135.16807
6.21 115.89235 135.54113
6.212 127.47463 135.92692
6.214 99.50598 136.326
6.216 152.32523 136.73896
6.218 122.33308 137.08478
6.22 119.19644 137.52779
6.222 151.69694 137.9867
6.224 107.33875 138.42705
6.226 116.97611 138.92023
6.228 153.48736 139.43172
6.23 135.29482 139.96245
6.232 119.46852 140.51339
6.234 151.59209 141.08559
6.236 118.35231 141.68017
6.238 142.13502 142.29834
6.24 138.16958 143.00741
6.242 115.99204 143.67699
6.244 123.94117 144.37445
6.246 166.12941 145.10151
6.248 181.79629 145.86008
6.25 174.94854 146.65236
6.252 130.77359 147.48082
6.254 158.39378 148.34835
6.256 182.17883 149.25831
6.258 275.37774 150.21462
6.26 375.64292 151.22182
6.262 428.46004 152.2852
6.264 296.45919 153.41076
6.266 160.17468 154.60518
6.268 153.59245 155.87574
6.27 140.33896 157.23007
6.272 146.91517 158.67586
6.274 146.12444 160.22048
6.276 134.63708 161.87045
6.278 119.02209 163.63099
6.28 161.86027 165.5054
6.282 134.71245 167.49442
6.284 143.49342 169.59554
6.286 170.09128 171.80206
6.288 155.55287 174.10222
6.29 146.04342 176.47886
6.292 164.78987 178.91077
6.294 160.6553 181.37715
6.296 155.07329 183.86501
6.298 161.22399 186.377
6.3 155.39379 188.93495
6.302 146.88229 191.57678
6.304 164.63175 194.34906
6.306 161.90045 197.29986
6.308 157.01418 200.48629
6.31 207.11485 203.92663
6.312 158.29856 207.6713
6.314 162.1187 211.75738
6.316 172.72985 216.22183
6.318 152.82975 221.10284
6.32 210.04077 226.44138
6.322 206.49038 232.28279
6.324 196.04836 238.67879
6.326 199.31637 245.69001
6.328 235.66699 253.38927
6.33 223.96729 261.86617
6.332 240.361 271.23363
6.334 212.33722 281.63727
6.336 255.05134 293.26888
6.338 289.3854 306.3854
6.34 273.36559 321.33512
6.342 292.83307 338.59245
6.344 376.12893 358.80221
6.346 352.48518 382.83319
6.348 395.44443 411.83887
6.35 484.67107 447.32006
6.352 467.64828 491.18152
6.354 562.60765 545.77027
6.356 633.26946 613.88076
6.358 624.57076 698.71003
6.36 789.51979 803.74727
6.362 940.78109 932.58598
6.364 1001.22391 1088.6544
6.366 1150.42386 1274.86902
6.368 1313.44257 1493.2242
6.37 1541.28965 1744.33301
6.372 1826.83654 2026.92694
6.374 2195.68777 2337.30214
6.376 2390.88865 2668.701
6.378 2813.73618 3010.46773
6.38 3419.42704 3347.40761
6.382 3666.15746 3659.26979
6.384 4270.24742 3921.51018
6.386 4679.65462 4108.22104
6.388 5036.36557 4197.54869
6.39 5235.27077 4177.99384
6.392 4911.0247 4052.31468
6.394 4828.89169 3836.54431
6.396 4328.79292 3554.79292
6.398 3628.3584 3232.98134
6.4 3285.47332 2894.30598
6.402 2641.18459 2557.22665
6.404 2152.6981 2235.27115
6.406 1956.30926 1937.65513
6.408 1621.11379 1670.07118
6.41 1412.43245 1435.39934
6.412 1139.97417 1234.30826
6.414 1059.88499 1065.78053
6.416 870.39736 927.58885
6.418 791.55077 816.72647
6.42 715.51024 729.78036
6.422 643.16665 663.23207
6.424 580.4688 613.67631
6.426 609.79314 577.95598
6.428 521.14698 553.2203
6.43 562.35313 536.91919
6.432 503.1348 526.75214
6.434 479.33022 520.59678
6.436 500.40748 516.45205
6.438 491.30077 512.4462
6.44 457.97489 506.89954
6.442 418.40966 498.55127
6.444 403.98466 486.72542
6.446 386.33812 471.43741
6.448 383.88931 453.29374
6.45 360.51427 433.25565
6.452 306.4003 412.36777
6.454 312.78911 391.56575
6.456 310.44632 371.58981
6.458 286.77673 352.97436
6.46 280.41253 336.07292
6.462 305.16222 321.09109
6.464 275.63958 308.1172
6.466 242.38894 297.14868
6.468 241.59803 288.11557
6.47 243.45906 280.90208
6.472 252.99142 275.36635
6.474 242.60806 271.35863
6.476 236.51819 268.73395
6.478 270.58081 267.36797
6.48 243.39329 267.16288
6.482 234.69246 268.0577
6.484 244.27138 270.03388
6.486 216.05029 273.12329
6.488 269.74549 277.41786
6.49 270.98802 283.08329
6.492 287.68477 290.3741
6.494 302.73177 299.65744
6.496 271.54554 311.4378
6.498 319.78604 326.3842
6.5 340.48953 345.3559
6.502 332.85907 369.4214
6.504 371.75183 399.86421
6.506 409.39079 438.16815
6.508 469.3856 485.97451
6.51 535.48793 545.00556
6.512 612.70488 616.95104
6.514 630.32191 703.31867
6.516 729.45612 805.25363
6.518 914.8715 923.33419
6.52 939.02817 1057.34949
6.522 1113.12699 1206.07392
6.524 1387.74395 1367.00874
6.526 1421.62756 1535.808
6.528 1661.37946 1706.25187
6.53 1908.74336 1869.79871
6.532 2047.04851 2015.57599
6.534 2363.36321 2131.13533
6.536 2420.39266 2204.37524
6.538 2498.92615 2226.44379
6.54 2611.0918 2194.46682
6.542 2496.39039 2112.53929
6.544 2388.17964 1990.29533
6.546 2231.62303 1840.07119
6.548 1936.11147 1674.10718
6.55 1629.47584 1502.86428
6.552 1503.58974 1334.44527
6.554 1197.6695 1174.68511
6.556 1044.54215 1027.48896
6.558 947.52189 895.19203
6.56 791.51973 778.87195
6.562 667.61631 678.61547
6.564 630.91333 593.757
6.566 526.15712 523.09887
6.568 435.09829 465.11311
6.57 446.57519 418.11873
6.572 362.7579 380.42755
6.574 384.88105 350.45426
6.576 382.7838 326.79061
6.578 333.81729 308.24676
6.58 325.80962 293.86601
6.582 350.32763 282.91939
6.584 314.53956 274.88702
6.586 338.45626 269.4314
6.588 314.53233 266.36662
6.59 319.68809 265.62661
6.592 307.65212 267.22798
6.594 316.30944 271.24149
6.596 281.41051 277.75398
6.598 327.44588 286.83454
6.6 323.13447 298.49971
6.602 342.17046 312.67877
6.604 329.84428 329.17832
6.606 328.57481 347.64445
6.608 317.02705 367.51966
6.61 334.34175 387.99426
6.612 314.23547 407.96132
6.614 342.48807 426.00458
6.616 363.00926 440.47418
6.618 331.04131 449.70667
6.62 301.92093 452.3855
6.622 356.77041 447.91803
6.624 332.38549 436.62696
6.626 343.60762 419.63588
6.628 354.33801 398.52371
6.63 311.57763 374.94438
6.632 282.87906 350.36451
6.634 297.05212 325.95137
6.636 251.98061 302.56495
6.638 248.49873 280.79598
6.64 294.80168 261.01341
6.642 253.90431 243.40654
6.644 267.74482 228.02468
6.646 259.97352 214.80475
6.648 236.93582 203.6039
6.65 241.81893 194.22609
6.652 220.47098 186.44639
6.654 211.15447 180.03154
6.656 240.93017 174.75596
6.658 243.6774 170.41288
6.66 223.11437 166.82097
6.662 269.11846 163.82711
6.664 250.45862 161.30617
6.666 275.40334 159.15872
6.668 334.97634 157.30767
6.67 241.58632 155.69436
6.672 215.48246 154.27478
6.674 207.62321 153.01607
6.676 166.84727 151.87434
6.678 186.10539 150.8694
6.68 173.27878 149.97397
6.682 166.98165 149.16196
6.684 183.94259 148.42934
6.686 161.39333 147.76578
6.688 149.76107 147.18645
6.69 182.01601 146.62926
6.692 153.8177 146.10822
6.694 142.34701 145.61187
6.696 150.179 145.13009
6.698 149.89372 144.65587
6.7 141.21065 144.18665
6.702 154.48067 143.72441
6.704 142.33651 143.27452
6.706 154.43012 142.84405
6.708 137.7529 142.44017
6.71 159.06467 142.06942
6.712 115.38035 141.73753
6.714 137.30879 141.44963
6.716 141.54929 141.21066
6.718 104.18768 141.02572
6.72 144.23728 140.90057
6.722 119.91377 140.84172
6.724 135.29128 140.85103
6.726 136.29381 140.94912
6.728 129.00959 141.14021
6.73 134.50906 141.43526
6.732 131.93421 141.84556
6.734 94.45482 142.38194
6.736 135.94698 143.05367
6.738 123.74026 143.86722
6.74 130.95322 144.82484
6.742 169.34647 145.92302
6.744 113.50649 147.15078
6.746 143.68212 148.48777
6.748 152.08027 149.90203
6.75 120.23513 151.34749
6.752 127.71177 152.76189
6.754 134.9641 154.06704
6.756 132.28479 155.17423
6.758 99.45723 155.99761
6.76 121.66286 156.47405
6.762 133.75726 156.58215
6.764 125.11377 156.34982
6.766 133.63712 155.84584
6.768 142.31091 155.16038
6.77 107.8014 154.38547
6.772 134.95046 153.60211
6.774 124.78164 152.87536
6.776 120.08382 152.25436
6.778 140.23634 151.77452
6.78 126.64137 151.46131
6.782 116.9802 151.32763
6.784 141.19702 151.38308
6.786 138.13736 151.63086
6.788 102.01992 152.07059
6.79 131.41528 152.6999
6.792 114.8759 153.51586
6.794 98.60299 154.51631
6.796 152.27477 155.70099
6.798 142.46652 157.07262
6.8 136.68775 158.63787
6.802 145.69564 160.40839
6.804 144.38427 162.28049
6.806 133.63957 164.52383
6.808 145.15802 167.05263
6.81 157.52892 169.91695
6.812 150.8071 173.18522
6.814 150.90953 176.95027
6.816 140.0738 181.33705
6.818 170.31325 186.51191
6.82 188.06814 192.69324
6.822 178.82431 200.16259
6.824 192.88219 209.27523
6.826 198.89301 220.46841
6.828 185.74658 234.26829
6.83 229.50999 251.27292
6.832 239.37256 272.15916
6.834 269.96821 297.64381
6.836 259.06898 328.44821
6.838 272.35264 365.24592
6.84 334.52787 408.59815
6.842 367.98624 458.89271
6.844 411.51758 516.20942
6.846 504.19823 580.31239
6.848 565.81405 650.50199
6.85 662.77324 725.52009
6.852 761.06959 803.42358
6.854 853.26905 881.4463
6.856 1030.57832 955.89286
6.858 1065.75782 1022.17099
6.86 1206.69942 1075.12887
6.862 1185.80483 1109.83042
6.864 1227.55971 1122.68229
6.866 1228.25836 1112.48804
6.868 1048.33843 1080.85985
6.87 1076.16929 1031.73071
6.872 1076.83581 970.26253
6.874 835.68584 901.72564
6.876 885.22921 830.751
6.878 787.98213 761.01677
6.88 651.41426 695.22493
6.882 701.93326 635.2037
6.884 594.52375 582.03353
6.886 549.73615 536.15723
6.888 537.29434 497.46919
6.89 473.06175 465.39321
6.892 448.59825 438.96435
6.894 447.65523 416.93513
6.896 404.95556 397.92541
6.898 370.72503 380.61672
6.9 356.70619 363.95352
6.902 359.7195 347.28211
6.904 331.19064 330.37076
6.906 328.03291 313.31509
6.908 301.02688 296.3904
6.91 278.07103 279.92053
6.912 296.7531 264.19731
6.914 229.19004 249.42262
6.916 242.64919 235.80438
6.918 265.43892 223.41224
6.92 213.18381 212.28725
6.922 193.20864 202.42491
6.924 209.86314 193.78291
6.926 183.43301 186.28887
6.928 187.72668 179.84844
6.93 180.65606 174.35337
6.932 164.0777 169.68927
6.934 146.66013 165.74233
6.936 145.79808 162.40462
6.938 175.44179 159.57795
6.94 158.88798 157.17602
6.942 137.76406 155.12533
6.944 166.02041 153.36497
6.946 163.50517 151.84563
6.948 136.8196 150.56225
6.95 144.64542 149.41659
6.952 146.08951 148.41927
6.954 131.99775 147.55274
6.956 136.40759 146.80395
6.958 127.72213 146.16345
6.96 134.39309 145.62458
6.962 155.14272 145.18304
6.964 135.81271 144.83658
6.966 111.03253 144.58486
6.968 137.87748 144.42963
6.97 120.98074 144.3807
6.972 120.14059 144.43345
6.974 142.7173 144.60425
6.976 123.44035 144.90848
6.978 118.12898 145.36779
6.98 127.53314 146.01197
6.982 150.71744 146.90003
6.984 152.44357 148.04722
6.986 143.31962 149.54076
6.988 160.29158 151.46684
6.99 160.92365 153.93131
6.992 163.98042 157.06205
6.994 165.58654 161.0016
6.996 165.39325 165.91368
6.998 186.43742 171.97085
7 178.92981 179.34723
7.002 181.7896 188.20642
7.004 188.82781 198.68667
7.006 208.07079 210.88365
7.008 210.07751 224.83157
7.01 244.80284 240.48286
7.012 267.9173 257.68612
7.014 266.28935 276.16143
7.016 285.57234 295.47168
7.018 237.17715 314.99083
7.02 274.68796 333.87675
7.022 294.08539 351.0673
7.024 287.92692 365.33641
7.026 311.20453 375.43883
7.028 300.43748 380.34574
7.03 300.82214 379.50173
7.032 318.42428 372.98546
7.034 319.11086 361.48514
7.036 309.63677 346.10361
7.038 321.78728 328.09762
7.04 283.59042 308.6886
7.042 250.83333 288.83339
7.044 293.69748 269.34768
7.046 247.2032 250.80969
7.048 235.89056 233.61629
7.05 226.51761 218.01425
7.052 200.54913 204.12785
7.054 212.74448 191.98287
7.056 197.81102 181.52812
7.058 164.49798 172.65545
7.06 158.80395 165.21834
7.062 172.33093 159.04854
7.064 134.97653 153.97032
7.066 155.64758 149.81182
7.068 146.30242 146.41314
7.07 129.25945 143.63165
7.072 120.22559 141.34446
7.074 126.94423 139.44891
7.076 117.78145 137.86149
7.078 128.79626 136.51585
7.08 148.10661 135.36025
7.082 124.33977 134.35501
7.084 104.39019 133.47
7.086 138.28631 132.68251
7.088 127.79392 131.97543
7.09 118.94401 131.3358
7.092 104.36057 130.75368
7.094 94.07979 130.22136
7.096 109.82573 129.73273
7.098 119.28635 129.28281
7.1 95.25798 128.86753
7.102 125.35565 128.48345
7.104 131.99349 128.12763
7.106 126.64752 127.84784
7.108 124.95742 127.54141
7.11 106.1474 127.25659
7.112 110.5162 126.99169
7.114 94.32912 126.74525
7.116 77.21755 126.51637
7.118 126.33438 126.30324
7.12 129.49831 126.1053
7.122 88.21567 125.92181
7.124 109.41994 125.75218
7.126 122.95258 125.59595
7.128 98.43356 125.45279
7.13 108.47894 125.3225
7.132 107.21697 125.20493
7.134 101.7718 125.10002
7.136 101.471 125.00768
7.138 109.13094 124.92781
7.14 121.35036 124.86019
7.142 134.09463 124.80448
7.144 118.11541 124.76011
7.146 123.60655 124.72625
7.148 137.85094 124.70173
7.15 115.16508 124.68496
7.152 151.01906 124.67382
7.154 144.12186 124.66562
7.156 116.60821 124.6571
7.158 130.78937 124.64459
7.16 125.88479 124.62709
7.162 137.77196 124.59644
7.164 145.07737 124.55367
7.166 165.61431 124.49899
7.168 127.81276 124.4343
7.17 179.40413 124.36259
7.172 171.91588 124.28726
7.174 177.32262 124.21155
7.176 203.03103 124.13821
7.178 219.14717 124.06938
7.18 196.28244 124.00661
7.182 225.7163 123.951
7.184 218.84115 123.9032
7.186 248.00368 123.86354
7.188 249.13207 123.83208
7.19 261.12551 123.80866
7.192 264.57273 123.79297
7.194 218.18838 123.78459
7.196 252.39179 123.78302
7.198 268.74212 123.78777
7.2 263.09573 123.79834
7.202 235.39704 123.81425
7.204 222.98724 123.83511
7.206 208.23913 123.86054
7.208 184.97385 123.89025
7.21 172.64732 123.924
7.212 155.41465 123.96161
7.214 157.41463 124.00293
7.216 184.65552 124.04787
7.218 153.56615 124.09637
7.22 124.0939 124.14837
7.222 146.80779 124.20386
7.224 142.27902 124.26285
7.226 104.50024 124.32534
7.228 127.30635 124.39136
7.23 120.82672 124.46094
7.232 102.92488 124.53413
7.234 123.16008 124.61096
7.236 108.83492 124.69151
7.238 115.91771 124.77583
7.24 115.30136 124.86399
7.242 108.75728 124.95606
7.244 99.55813 125.05213
7.246 106.34985 125.15228
7.248 113.89013 125.2566
7.25 102.87847 125.3652
7.252 128.22618 125.47819
7.254 138.68713 125.59566
7.256 90.1487 125.72064
7.258 121.23479 125.84748
7.26 99.33152 125.9792
7.262 141.68518 126.11595
7.264 131.81469 126.25786
7.266 111.26055 126.40511
7.268 127.14411 126.55786
7.27 116.45955 126.71629
7.272 126.87749 126.88413
7.274 107.30496 127.05452
7.276 122.36604 127.23118
7.278 114.69597 127.41434
7.28 116.27595 127.60425
7.282 107.92885 127.80114
7.284 102.50505 128.00529
7.286 109.07997 128.21696
7.288 134.7945 128.43646
7.29 128.81276 128.66409
7.292 124.52485 128.90018
7.294 117.11423 129.14509
7.296 120.2613 129.39918
7.298 119.73287 129.66284
7.3 131.80506 129.93649
7.302 98.99706 130.22057
7.304 131.60283 130.51555
7.306 113.4056 130.82193
7.308 121.46695 131.14023
7.31 128.08426 131.47103
7.312 116.43001 131.81957
7.314 125.52763 132.17722
7.316 178.76953 132.54931
7.318 139.84374 132.93658
7.32 135.0815 133.33983
7.322 112.09258 133.75995
7.324 122.55971 134.19789
7.326 172.21802 134.65471
7.328 179.66609 135.13157
7.33 149.82833 135.6298
7.332 155.37438 136.15088
7.334 159.97714 136.69651
7.336 162.4945 137.26864
7.338 154.9697 137.86952
7.34 145.29941 138.50172
7.342 171.7738 139.16822
7.344 182.8139 139.87241
7.346 158.97382 140.61812
7.348 168.13137 141.40962
7.35 180.49438 142.25156
7.352 161.27768 143.14893
7.354 136.39932 144.10689
7.356 153.35431 145.13067
7.358 159.11466 146.22533
7.36 157.58065 147.39554
7.362 139.2944 148.64532
7.364 142.91944 149.97777
7.366 131.65013 151.3948
7.368 147.04468 152.89676
7.37 134.03085 154.48216
7.372 153.79121 156.14718
7.374 154.73353 157.88531
7.376 149.57802 159.68706
7.378 159.33627 161.54058
7.38 149.72165 163.43186
7.382 135.74987 165.34923
7.384 146.63834 167.28615
7.386 140.07631 169.24533
7.388 132.95373 171.24078
7.39 163.28762 173.3083
7.392 146.94953 175.45714
7.394 164.7045 177.73417
7.396 162.80974 180.17536
7.398 170.2485 182.8183
7.4 143.37197 185.69763
7.402 147.4053 188.84909
7.404 187.08349 192.31074
7.406 187.5548 196.12473
7.408 182.1841 200.34005
7.41 182.63675 205.016
7.412 207.84498 210.22676
7.414 216.66817 216.06738
7.416 231.03023 222.6615
7.418 229.76284 230.17094
7.42 243.05452 238.80734
7.422 262.1452 248.84578
7.424 267.11959 260.63972
7.426 311.88198 274.63663
7.428 257.69576 291.3927
7.43 315.26562 311.58462
7.432 400.19802 336.01596
7.434 395.23616 365.61501
7.436 435.46754 401.42113
7.438 493.41566 444.55659
7.44 474.60248 496.18201
7.442 532.11162 557.4343
7.444 680.31894 629.36224
7.446 766.04748 712.77609
7.448 765.17739 808.22869
7.45 929.07923 915.84587
7.452 1045.04851 1035.22149
7.454 1101.40883 1165.28963
7.456 1285.70914 1304.18229
7.458 1436.89433 1449.0663
7.46 1544.61048 1595.96338
7.462 1572.52548 1739.59038
7.464 1817.43711 1873.31656
7.466 1961.28459 1989.40782
7.468 2048.40259 2079.74931
7.47 2210.66575 2137.11101
7.472 2208.33399 2156.7092
7.474 2249.55271 2137.48014
7.476 2345.8096 2082.44682
7.478 2280.15447 1997.9799
7.48 2122.25621 1892.33616
7.482 2096.45993 1774.13463
7.484 1890.72882 1651.25597
7.486 1627.42419 1530.28649
7.488 1515.63711 1416.37426
7.49 1311.75808 1313.30051
7.492 1206.58365 1223.62154
7.494 1122.8373 1148.80877
7.496 1053.64294 1089.36468
7.498 953.62059 1044.9144
7.5 984.27589 1014.27777
7.502 1027.83442 995.12173
7.504 987.71237 985.63651
7.506 978.07545 982.17641
7.508 1127.81004 981.03441
7.51 1136.56749 978.32025
7.512 1201.17233 970.41194
7.514 1209.09869 954.50991
7.516 1109.19941 929.11185
7.518 1052.95278 894.19443
7.52 995.57026 851.01174
7.522 914.53485 801.62059
7.524 811.7815 748.35533
7.526 736.81939 693.4308
7.528 670.99406 638.72984
7.53 583.63883 585.73836
7.532 520.67673 535.56229
7.534 498.35067 488.97527
7.536 436.71148 446.47023
7.538 374.35647 408.30592
7.54 338.55848 374.54837
7.542 332.17686 345.1093
7.544 291.53647 319.783
7.546 295.53743 298.28172
7.548 285.55669 280.26888
7.55 254.94047 265.3885
7.552 205.82687 253.28976
7.554 217.88081 243.6457
7.556 216.25422 236.16572
7.558 229.31686 230.59987
7.56 226.3798 226.74867
7.562 200.12819 224.44641
7.564 222.67345 223.54616
7.566 240.37357 223.97555
7.568 214.45062 225.62478
7.57 231.60548 228.40269
7.572 215.34926 232.21075
7.574 220.56521 236.92166
7.576 240.27108 242.38225
7.578 212.24955 248.39147
7.58 221.95979 254.69029
7.582 253.03627 260.95097
7.584 217.71179 266.77323
7.586 254.56883 271.69662
7.588 270.95937 275.23905
7.59 260.1369 276.96568
7.592 271.72996 276.57511
7.594 265.27996 273.97213
7.596 229.83176 269.29207
7.598 273.66284 262.86378
7.6 247.58951 255.12995
7.602 257.10433 246.56125
7.604 226.23341 237.5927
7.606 220.55721 228.59119
7.608 238.838 219.84731
7.61 208.34766 211.58092
7.612 226.67263 203.95145
7.614 222.2102 197.0689
7.616 199.84541 191.0037
7.618 172.76392 185.79572
7.62 178.06545 181.46268
7.622 177.9016 178.00824
7.624 172.88117 175.43442
7.626 166.19345 173.73408
7.628 193.45838 172.9128
7.63 175.82726 172.98875
7.632 173.44037 173.99565
7.634 167.23881 175.98392
7.636 174.30263 179.0194
7.638 181.2379 183.1797
7.64 204.8606 188.54817
7.642 184.95314 195.20575
7.644 204.49461 203.22096
7.646 232.37266 212.63855
7.648 212.87752 223.46721
7.65 254.47741 235.66655
7.652 230.46051 249.13345
7.654 250.33851 263.68719
7.656 264.03636 279.05276
7.658 274.93575 294.84227
7.66 297.31574 310.53645
7.662 276.96755 325.4733
7.664 282.15515 338.85757
7.666 315.07622 349.80986
7.668 295.23662 357.46943
7.67 285.49171 361.14267
7.672 253.96112 360.45572
7.674 260.1856 355.24164
7.676 275.72004 346.35631
7.678 240.39643 334.32816
7.68 273.16329 320.03012
7.682 230.59719 304.33082
7.684 246.43845 288.00242
7.686 249.0111 271.68041
7.688 226.3385 255.85862
7.69 246.08648 240.90366
7.692 256.48361 227.073
7.694 195.70403 214.53344
7.696 271.44854 203.37736
7.698 188.77597 193.63713
7.7 184.54542 185.30315
7.702 206.62352 178.31718
7.704 211.80099 172.61244
7.706 163.97531 168.10482
7.708 194.04854 164.70632
7.71 201.42347 162.33169
7.712 204.10555 160.90279
7.714 198.24914 160.35074
7.716 186.47481 160.61589
7.718 187.25705 161.64657
7.72 201.32164 163.39591
7.722 159.53971 165.81071
7.724 187.18862 168.83952
7.726 174.69463 172.41728
7.728 164.46571 176.46186
7.73 180.27222 180.86764
7.732 161.85064 185.49843
7.734 178.63333 190.18066
7.736 162.45789 194.69853
7.738 167.13841 198.79525
7.74 172.72 202.18597
7.742 208.51764 204.5873
7.744 166.84471 205.76224
7.746 184.40851 205.56932
7.748 189.1211 203.99676
7.75 152.57581 201.16563
7.752 184.28272 197.30005
7.754 193.47732 192.67892
7.756 151.1974 187.58847
7.758 183.46335 182.28897
7.76 182.52504 176.99826
7.762 167.53287 171.8878
7.764 181.07932 167.08558
7.766 184.97202 162.69153
7.768 195.32972 158.71334
7.77 171.89588 155.24654
7.772 160.32084 152.26652
7.774 192.7801 149.75824
7.776 176.44151 147.68334
7.778 154.9321 145.99448
7.78 219.76711 144.63082
7.782 156.61147 143.52341
7.784 219.03149 142.5995
7.786 212.69252 141.78817
7.788 166.81085 141.02679
7.79 170.07318 140.26714
7.792 165.31533 139.47938
7.794 150.77675 138.65257
7.796 164.93408 137.79164
7.798 151.46137 136.91231
7.8 135.60143 136.03566
7.802 141.92183 135.18391
7.804 140.62836 134.37779
7.806 137.35386 133.63557
7.808 130.92383 132.97297
7.81 132.78833 132.4037
7.812 128.10699 131.94019
7.814 143.97264 131.59437
7.816 146.80949 131.37851
7.818 146.4787 131.30598
7.82 141.3378 131.39198
7.822 144.0121 131.65419
7.824 140.95104 132.11316
7.826 126.45144 132.79247
7.828 150.73342 133.71846
7.83 143.16638 134.9196
7.832 158.03833 136.43132
7.834 131.19886 138.27016
7.836 148.44751 140.46782
7.838 160.07932 143.04445
7.84 171.31099 146.01175
7.842 170.64675 149.36981
7.844 168.02067 153.10378
7.846 145.36925 157.1804
7.848 159.68027 161.54424
7.85 152.09583 166.11358
7.852 165.45192 170.77597
7.854 164.46099 175.38398
7.856 182.58958 179.75274
7.858 191.60699 183.6636
7.86 208.12096 186.8764
7.862 159.90217 189.15677
7.864 173.81917 190.31457
7.866 190.22608 190.24402
7.868 187.96058 188.94956
7.87 173.11527 186.54553
7.872 194.27754 183.22954
7.874 172.05637 179.24209
7.876 164.52624 174.82846
7.878 174.41092 170.20969
7.88 195.91396 165.57314
7.882 160.83188 161.06733
7.884 160.02724 156.80516
7.886 174.94026 152.86848
7.888 181.40449 149.31267
7.89 149.29877 146.17076
7.892 140.25817 143.45689
7.894 165.42683 141.16943
7.896 168.37115 139.29388
7.898 159.72594 137.8055
7.9 155.05707 136.67175
7.902 152.80442 135.8544
7.904 147.01908 135.31121
7.906 131.65385 134.99709
7.908 134.38058 134.86478
7.91 132.53099 134.86517
7.912 102.96655 134.94755
7.914 133.58003 135.06054
7.916 123.70178 135.15423
7.918 112.38052 135.18402
7.92 112.40716 135.11566
7.922 104.12576 134.92982
7.924 120.89747 134.62421
7.926 129.47842 134.21034
7.928 128.54199 133.71544
7.93 140.56905 133.16694
7.932 99.67711 132.59404
7.934 123.06487 132.02296
7.936 122.55468 131.47558
7.938 120.79703 130.96917
7.94 115.32873 130.51684
7.942 139.13579 130.12809
7.944 152.70987 129.8094
7.946 126.56834 129.56474
7.948 122.79256 129.39608
7.95 111.35874 129.3038
7.952 131.60954 129.28713
7.954 116.87656 129.34463
7.956 123.1422 129.47686
7.958 128.70972 129.67768
7.96 110.46505 129.94829
7.962 140.11577 130.28856
7.964 147.75525 130.69964
7.966 146.14375 131.18437
7.968 121.19672 131.74776
7.97 113.10319 132.39745
7.972 137.97417 133.14439
7.974 138.18654 134.00355
7.976 139.3542 134.99507
7.978 144.34165 136.14426
7.98 143.83146 137.48437
7.982 170.12405 139.0568
7.984 145.71401 140.91269
7.986 166.28924 143.11413
7.988 166.92248 145.73524
7.99 175.7496 148.86279
7.992 187.29595 152.59631
7.994 177.4695 157.04739
7.996 175.202 162.3379
7.998 188.20364 168.59708
8 196.44198 175.95712
8.002 199.47822 184.54722
8.004 199.2427 194.48606
8.006 232.84328 205.87251
8.008 228.00041 218.77467
8.01 243.53356 233.21733
8.012 249.1003 249.16785
8.014 269.44764 266.52106
8.016 239.56301 285.08433
8.018 306.19186 304.57301
8.02 252.56812 324.57181
8.022 249.76812 344.58594
8.024 309.21714 364.02362
8.026 295.81814 382.22695
8.028 311.05374 398.49702
8.03 315.19275 412.11113
8.032 287.36527 422.35517
8.034 308.87524 428.56947
8.036 326.19319 430.23701
8.038 315.56135 427.09444
8.04 284.63919 419.22313
8.042 308.60616 407.07022
8.044 303.15537 391.28334
8.046 280.33094 372.9746
8.048 304.08716 352.99182
8.05 274.89575 332.20938
8.052 262.74278 311.35603
8.054 296.10813 291.01964
8.056 254.7351 271.63888
8.058 224.09268 253.52455
8.06 245.54733 236.87926
8.062 245.31172 221.81574
8.064 203.8174 208.37296
8.066 214.55866 196.53049
8.068 230.79429 186.22158
8.07 203.16794 177.34519
8.072 177.8871 169.77713
8.074 205.83216 163.37993
8.076 179.43521 158.01153
8.078 180.89587 153.5318
8.08 171.08179 149.80853
8.082 153.83527 146.7207
8.084 159.31182 144.14723
8.086 149.65055 142.0224
8.088 149.90211 140.25404
8.09 146.84832 138.77737
8.092 153.58086 137.54009
8.094 142.77799 136.50093
8.096 131.45202 135.62807
8.098 135.79015 134.89764
8.1 141.03928 134.29231
8.102 126.55821 133.80006
8.104 128.84689 133.41312
8.106 123.95476 133.12697
8.108 133.20548 132.93956
8.11 122.83712 132.85059
8.112 115.58358 132.86078
8.114 139.90648 132.97128
8.116 146.94535 133.18304
8.118 121.02957 133.49623
8.12 117.83465 133.90964
8.122 122.80027 134.42123
8.124 119.98342 135.02315
8.126 113.61644 135.70776
8.128 124.92562 136.46255
8.13 119.05061 137.27057
8.132 126.61321 138.10966
8.134 139.26877 138.95204
8.136 138.30029 139.76444
8.138 133.3686 140.50975
8.14 130.85406 141.15065
8.142 132.9872 141.65535
8.144 141.1852 142.00442
8.146 172.00168 142.19647
8.148 124.89115 142.25037
8.15 141.76176 142.20308
8.152 143.08285 142.1044
8.154 155.14774 142.01083
8.156 124.04857 141.98078
8.158 155.59163 142.07194
8.16 153.70752 142.34044
8.162 161.06074 142.84128
8.164 152.94193 143.62909
8.166 149.07493 144.75888
8.168 169.47946 146.28639
8.17 163.32875 148.26809
8.172 169.94145 150.76058
8.174 169.24457 153.81943
8.176 192.81399 157.4974
8.178 187.0145 161.84193
8.18 171.71125 166.89177
8.182 182.76991 172.67277
8.184 182.28043 179.19267
8.186 197.22323 186.43519
8.188 181.6096 194.35373
8.19 194.33599 202.86571
8.192 223.09908 211.84908
8.194 193.90919 221.14275
8.196 218.18308 230.5521
8.198 193.60079 239.85834
8.2 158.66972 248.82769
8.202 207.1714 257.21498
8.204 231.93796 264.75892
8.206 192.13168 271.17328
8.208 222.22456 276.14546
8.21 198.93238 279.35543
8.212 191.30717 280.52117
8.214 203.72006 279.46141
8.216 215.71357 276.15207
8.218 217.95043 270.74959
8.22 225.28112 263.56895
8.222 236.04183 255.02584
8.224 202.56573 245.56479
8.226 205.25768 235.62102
8.228 188.60142 225.56126
8.23 196.44773 215.68214
8.232 192.23398 206.21126
8.234 201.72012 197.289
8.236 191.23713 189.07973
8.238 164.65117 181.62711
8.24 167.05998 174.96404
8.242 175.63914 169.09369
8.244 180.22886 163.99551
8.246 186.31491 159.63084
8.248 152.751 155.94799
8.25 182.73469 152.887
8.252 143.53172 150.3838
8.254 166.03683 148.37377
8.256 164.59065 146.7946
8.258 148.7692 145.58845
8.26 148.61224 144.7034
8.262 147.73618 144.0943
8.264 129.66349 143.72321
8.266 142.01244 143.55933
8.268 146.97887 143.57883
8.27 140.47362 143.76452
8.272 153.2285 144.10548
8.274 136.6984 144.59689
8.276 132.56705 145.23993
8.278 146.35762 146.04202
8.28 150.33926 147.01721
8.282 135.97454 148.18701
8.284 131.52648 149.58131
8.286 149.29415 151.23969
8.288 166.09598 153.21284
8.29 153.90657 155.56392
8.292 151.62319 158.36995
8.294 170.80619 161.72275
8.296 166.84786 165.72939
8.298 177.42894 170.51171
8.3 157.707 176.20479
8.302 157.2122 182.95411
8.304 190.90593 190.91141
8.306 222.37148 200.22762
8.308 206.30927 211.04696
8.31 199.67035 223.49694
8.312 233.02886 237.67859
8.314 247.92944 253.65565
8.316 279.29506 271.44372
8.318 293.93307 290.9961
8.32 313.18756 312.19438
8.322 322.9266 334.83219
8.324 352.3944 358.59971
8.326 369.79742 383.06582
8.328 402.55643 407.66073
8.33 461.90341 431.66571
8.332 518.61914 454.22223
8.334 574.04655 474.37705
8.336 639.79022 491.17725
8.338 692.00341 503.81255
8.34 672.04721 511.77484
8.342 722.50808 514.98049
8.344 636.6964 513.80287
8.346 670.8847 508.99789
8.348 662.15588 501.55295
8.35 579.29658 492.51613
8.352 527.09202 482.85536
8.354 512.31389 473.36957
8.356 452.44452 464.64797
8.358 445.12662 457.06576
8.36 417.05572 450.80117
8.362 396.48123 445.86464
8.364 389.98798 442.13317
8.366 380.5207 439.38132
8.368 368.92878 437.3017
8.37 370.44738 435.51289
8.372 328.93049 433.56247
8.374 337.53724 430.94154
8.376 348.1237 427.12609
8.378 333.01145 421.6483
8.38 302.84522 414.18113
8.382 297.09846 404.60546
8.384 295.00343 393.03146
8.386 308.04423 379.76693
8.388 322.86118 365.25203
8.39 274.88778 349.97631
8.392 288.73156 334.43347
8.394 294.7149 319.07762
8.396 274.23089 304.31086
8.398 242.29155 290.47427
8.4 241.80099 277.85666
8.402 247.23081 266.69397
8.404 251.07881 257.17607
8.406 256.90733 249.45273
8.408 282.30522 243.63931
8.41 252.03725 239.82383
8.412 256.53973 238.06142
8.414 250.60177 238.38972
8.416 237.77236 240.8202
8.418 256.57698 245.3392
8.42 222.21537 251.90542
8.422 245.69871 260.44625
8.424 257.75351 270.85296
8.426 267.86346 282.97443
8.428 271.39319 296.60886
8.43 304.72424 311.49311
8.432 288.17639 327.28944
8.434 309.13512 343.57045
8.436 333.62537 359.8062
8.438 346.8939 375.35292
8.44 397.73599 389.46884
8.442 433.60908 401.34861
8.444 424.87506 410.20061
8.446 526.8655 415.3569
8.448 440.0854 416.39223
8.45 481.416 413.21211
8.452 503.4288 406.07369
8.454 469.44802 395.53008
8.456 396.1407 382.32208
8.458 404.55488 367.25874
8.46 404.86272 351.12148
8.462 363.10011 334.60638
8.464 340.6477 318.30154
8.466 299.38969 302.68742
8.468 315.47113 288.14897
8.47 318.32312 274.99132
8.472 250.1822 263.45534
8.474 274.20056 253.73176
8.476 281.25241 245.97348
8.478 245.24717 240.30727
8.48 269.61823 236.84043
8.482 276.65184 235.67271
8.484 260.16629 236.89922
8.486 264.28692 240.61419
8.488 288.06304 246.911
8.49 289.3984 255.87896
8.492 272.56464 267.59677
8.494 328.19688 282.12295
8.496 329.8516 299.48354
8.498 325.53567 319.65788
8.5 342.00927 342.56257
8.502 383.97291 368.03424
8.504 395.95748 395.81071
8.506 372.36088 425.51013
8.508 459.63074 456.60743
8.51 489.88876 488.40852
8.512 481.56395 520.02517
8.514 579.93732 550.35922
8.516 542.54291 578.11175
8.518 540.91024 601.8394
8.52 604.74305 620.07709
8.522 620.17767 631.51724
8.524 605.89064 635.22117
8.526 650.96069 630.89922
8.528 671.19847 618.87221
8.53 623.88821 600.03178
8.532 660.27062 575.65724
8.534 602.53302 547.19579
8.536 572.43978 516.07551
8.538 557.82698 483.58091
8.54 533.95036 450.80057
8.542 455.26448 418.61341
8.544 472.17321 387.70267
8.546 407.45423 358.57825
8.548 353.68256 331.59995
8.55 371.96414 306.99876
8.552 325.25142 284.89605
8.554 316.51357 265.32097
8.556 260.09888 248.22691
8.558 276.38471 233.50707
8.56 264.45952 221.0093
8.562 251.83288 210.54967
8.564 218.72699 201.92463
8.566 193.98118 194.92112
8.568 191.80423 189.3247
8.57 201.81125 184.92524
8.572 188.95057 181.52051
8.574 203.14636 178.91768
8.576 173.7887 176.93344
8.578 168.70093 175.39351
8.58 187.3781 174.13273
8.582 172.79166 172.99728
8.584 178.19774 171.84982
8.586 168.27795 170.5774
8.588 174.75609 169.1001
8.59 181.22759 167.37683
8.592 181.10532 165.40533
8.594 189.26919 163.21567
8.596 199.57366 160.85931
8.598 184.2082 158.39726
8.6 206.33395 155.8905
8.602 152.74059 153.39392
8.604 192.76825 150.95348
8.606 133.68416 148.60563
8.608 175.9118 146.37814
8.61 159.6171 144.29009
8.612 149.46952 142.3545
8.614 154.14211 140.5783
8.616 135.34384 138.9672
8.618 125.60215 137.51163
8.62 143.47376 136.2099
8.622 136.64267 135.05411
8.624 145.7753 134.03456
8.626 137.46566 133.14054
8.628 143.71074 132.36091
8.63 131.83589 131.68467
8.632 150.96065 131.1024
8.634 146.64591 130.60277
8.636 118.04716 130.17859
8.638 121.5516 129.82317
8.64 134.95372 129.53142
8.642 121.67991 129.29946
8.644 125.1752 129.1266
8.646 147.95873 129.01253
8.648 137.74451 128.96549
8.65 147.19438 128.97685
8.652 115.47584 129.05857
8.654 128.38926 129.21822
8.656 141.63744 129.46586
8.658 112.66418 129.81125
8.66 130.15074 130.26769
8.662 129.56879 130.84909
8.664 126.14776 131.5709
8.666 144.90436 132.44742
8.668 122.03285 133.49455
8.67 138.55478 134.72702
8.672 128.09644 136.15808
8.674 158.43676 137.79873
8.676 155.91301 139.65674
8.678 141.02421 141.73547
8.68 154.19651 144.0326
8.682 128.01008 146.53855
8.684 149.86089 149.23466
8.686 155.04873 152.09118
8.688 155.10353 155.06551
8.69 158.81683 158.1011
8.692 180.44245 161.12825
8.694 185.88559 164.06769
8.696 166.28892 166.83764
8.698 172.89587 169.36344
8.7 172.03929 171.58716
8.702 164.93558 173.47365
8.704 183.18878 175.00993
8.706 176.43294 176.19801
8.708 171.77745 177.04382
8.71 179.72396 177.54701
8.712 166.02292 177.69578
8.714 165.05885 177.4693
8.716 180.41643 176.84725
8.718 129.50612 175.82359
8.72 151.71362 174.41937
8.722 158.34369 172.68944
8.724 141.86433 170.72025
8.726 155.48378 168.62019
8.728 149.69895 166.5062
8.73 149.90973 164.4914
8.732 158.23566 162.67611
8.734 147.77453 161.14302
8.736 149.95846 159.95539
8.738 152.7062 159.15709
8.74 136.76436 158.57586
8.742 149.5952 158.61442
8.744 153.5413 159.06454
8.746 162.31394 159.89867
8.748 144.65264 161.07156
8.75 152.96086 162.51953
8.752 167.58711 164.15968
8.754 151.87804 165.88948
8.756 167.70211 167.5879
8.758 149.02765 169.11962
8.76 164.8536 170.34612
8.762 144.11175 171.13098
8.764 161.34927 171.37049
8.766 171.26018 171.00155
8.768 158.91445 170.01712
8.77 155.38686 168.45342
8.772 157.87352 166.39808
8.774 150.87461 163.96114
8.776 162.11701 161.26098
8.778 137.55867 158.41108
8.78 139.83578 155.51204
8.782 135.97759 152.64825
8.784 136.26844 149.88779
8.786 138.12076 147.28382
8.788 148.9627 144.81057
8.79 136.79123 142.62954
8.792 145.53505 140.69481
8.794 122.68069 139.01945
8.796 138.22651 137.61094
8.798 141.56055 136.47292
8.8 136.85281 135.60679
8.802 143.34256 135.01336
8.804 127.84128 134.69437
8.806 149.3637 134.65382
8.808 156.24352 134.89919
8.81 106.06787 135.44222
8.812 176.52499 136.29941
8.814 145.4253 137.49211
8.816 144.6471 139.04611
8.818 168.87205 140.99077
8.82 164.29216 143.35767
8.822 162.56959 146.17873
8.824 167.62196 149.48399
8.826 150.09117 153.29888
8.828 176.53212 157.64128
8.83 166.90962 162.51836
8.832 171.86822 167.92328
8.834 164.40738 173.83187
8.836 179.84948 180.20027
8.838 186.78135 186.95762
8.84 201.01937 194.00869
8.842 206.01845 201.2263
8.844 214.23704 208.44883
8.846 199.82484 215.47942
8.848 214.9061 222.07795
8.85 188.98151 227.97871
8.852 215.94871 232.89821
8.854 216.31634 236.5652
8.856 226.84145 238.75871
8.858 206.8997 239.34776
8.86 195.30591 238.31984
8.862 215.2772 235.78721
8.864 236.99666 231.96853
8.866 204.65988 227.15308
8.868 210.34917 221.66054
8.87 229.46457 215.8073
8.872 213.75871 209.88477
8.874 211.27296 204.1492
8.876 217.95548 198.81955
8.878 227.23906 194.06796
8.88 202.20679 190.06993
8.882 213.97878 186.93747
8.884 198.43155 184.77044
8.886 183.32011 183.64202
8.888 186.35374 183.59967
8.89 179.22413 184.66853
8.892 213.66455 186.84944
8.894 186.25859 190.11829
8.896 204.47719 194.42502
8.898 205.58373 199.6921
8.9 199.78965 205.81259
8.902 197.61257 212.64717
8.904 210.26076 220.02037
8.906 220.23291 227.71585
8.908 188.87272 235.47191
8.91 188.43303 242.97922
8.912 196.45696 249.88462
8.914 199.31219 255.80584
8.916 210.51993 260.36091
8.918 194.3104 263.2121
8.92 199.82844 264.11637
8.922 203.36869 262.96775
8.924 207.46718 259.81608
8.926 207.79822 254.85457
8.928 212.17917 248.38119
8.93 212.34731 240.7486
8.932 195.42609 232.31609
8.934 182.7514 223.41808
8.936 208.62903 214.3444
8.938 181.421 205.3343
8.94 192.49845 196.5777
8.942 196.5537 188.22102
8.944 175.24541 180.36757
8.946 172.14174 173.09078
8.948 179.97651 166.43378
8.95 161.67607 160.41509
8.952 172.32655 155.03262
8.954 157.84654 150.26758
8.956 178.23714 146.08811
8.958 151.92486 142.45284
8.96 151.35066 139.31411
8.962 142.62455 136.62095
8.964 140.18787 134.32151
8.966 137.05011 132.36517
8.968 134.70664 130.6812
8.97 134.21636 129.27131
8.972 127.51199 128.07307
8.974 150.07354 127.05222
8.976 116.61186 126.17787
8.978 140.34947 125.42518
8.98 112.0051 124.77303
8.982 120.58308 124.20408
8.984 136.11685 123.70424
8.986 135.37239 123.26222
8.988 135.61897 122.86905
8.99 134.67022 122.51765
8.992 137.75597 122.20248
8.994 122.51082 121.91927
8.996 147.13334 121.66474
8.998 119.20478 121.43644
9 131.40714 121.2326
9.002 126.64089 121.05257
9.004 116.33626 120.89475
9.006 118.59122 120.75957
9.008 129.19793 120.64749
9.01 117.66898 120.55954
9.012 110.00846 120.4982
9.014 126.65948 120.46819
9.016 119.72897 120.46529
9.018 128.41526 120.49738
9.02 131.33425 120.56913
9.022 131.30768 120.68601
9.024 100.16139 120.85432
9.026 109.10802 121.08109
9.028 114.02834 121.3739
9.03 125.16829 121.74075
9.032 136.03057 122.18971
9.034 124.28327 122.72859
9.036 132.50547 123.36452
9.038 116.93144 124.10345
9.04 129.53778 124.95041
9.042 131.25605 125.90575
9.044 119.91036 126.96935
9.046 120.37255 128.13678
9.048 133.12085 129.39947
9.05 121.31335 130.74398
9.052 113.02133 132.15125
9.054 148.83917 133.58811
9.056 111.86683 135.03672
9.058 131.28098 136.44848
9.06 139.02287 137.77427
9.062 120.02888 138.95819
9.064 123.72936 139.94077
9.066 116.0347 140.66459
9.068 127.87154 141.0818
9.07 148.64711 141.1619
9.072 123.46044 140.89742
9.074 123.38289 140.30541
9.076 135.43157 139.42413
9.078 140.15427 138.3062
9.08 128.92907 137.01068
9.082 121.9687 135.59614
9.084 126.01496 134.11596
9.086 115.62604 132.61598
9.088 103.30165 131.13386
9.09 131.74193 129.69937
9.092 104.82179 128.33606
9.094 127.23808 127.05892
9.096 128.40844 125.88
9.098 96.36001 124.80673
9.1 120.56463 123.84043
9.102 111.03726 122.98081
9.104 116.5583 122.22595
9.106 135.58059 121.57012
9.108 121.45355 121.00634
9.11 105.05434 120.52765
9.112 130.88432 120.12556
9.114 128.86644 119.79177
9.116 117.98247 119.51823
9.118 123.59875 119.29728
9.12 93.62271 119.12194
9.122 133.20916 118.98595
9.124 117.47303 118.88382
9.126 114.54425 118.81089
9.128 140.05404 118.76327
9.13 107.03414 118.73777
9.132 123.6748 118.73187
9.134 120.39381 118.74364
9.136 110.69416 118.77168
9.138 105.44082 118.81506
9.14 137.67849 118.87326
9.142 114.86097 118.94617
9.144 133.69063 119.03407
9.146 130.57816 119.13761
9.148 118.23096 119.25786
9.15 106.70017 119.39633
9.152 132.52359 119.55501
9.154 129.14094 119.73648
9.156 124.24329 119.944
9.158 121.66339 120.18161
9.16 102.17558 120.45427
9.162 117.207 120.76799
9.164 131.87733 121.12999
9.166 135.83538 121.5488
9.168 134.33654 122.03442
9.17 138.69826 122.59832
9.172 120.50341 123.25407
9.174 141.80706 124.01517
9.176 124.80495 124.89801
9.178 128.45687 125.91953
9.18 148.63932 127.09761
9.182 137.511 128.45023
9.184 145.37447 129.99505
9.186 156.36917 131.74865
9.188 167.06995 133.72564
9.19 138.99143 135.93095
9.192 156.65291 138.38587
9.194 163.99269 141.08638
9.196 150.61497 144.02915
9.198 178.67981 147.20377
9.2 162.72364 150.59166
9.202 148.45983 154.16486
9.204 177.96732 157.88469
9.206 165.78492 161.70003
9.208 168.48772 165.54573
9.21 186.27056 169.34165
9.212 160.80806 172.99378
9.214 164.61564 176.39871
9.216 179.13007 179.45244
9.218 170.94631 182.06324
9.22 168.19951 184.16397
9.222 177.12005 185.72421
9.224 181.60779 186.75194
9.226 179.10296 187.2881
9.228 177.92254 187.39389
9.23 177.78798 187.13575
9.232 204.22292 186.57254
9.234 169.82193 185.74794
9.236 183.22272 184.69272
9.238 197.3424 183.41602
9.24 160.01304 181.93461
9.242 169.87317 180.27007
9.244 177.26431 178.46116
9.246 152.3325 176.56869
9.248 175.38228 174.67475
9.25 190.64208 172.87714
9.252 157.27846 171.28121
9.254 164.67688 169.99075
9.256 194.81463 169.10508
9.258 140.15737 168.70937
9.26 144.01854 168.87595
9.262 168.51709 169.66229
9.264 154.02339 171.11035
9.266 170.51779 173.24598
9.268 202.39475 176.07796
9.27 148.555 179.59686
9.272 204.83598 183.77337
9.274 194.62591 188.55637
9.276 187.56406 193.87051
9.278 230.57183 199.61339
9.28 210.05248 205.65247
9.282 207.48054 211.82223
9.284 257.11524 217.92283
9.286 235.68546 223.7221
9.288 231.91438 228.96348
9.29 240.20001 233.38197
9.292 290.78569 236.72831
9.294 275.30592 238.79816
9.296 250.36393 239.45932
9.298 307.20936 238.66905
9.3 291.68133 236.47616
9.302 265.15924 233.00824
9.304 302.04629 228.44959
9.306 244.22927 223.01703
9.308 247.15739 216.93889
9.31 238.18742 210.43923
9.312 195.67114 203.7271
9.314 237.28296 196.98992
9.316 219.31954 190.3899
9.318 192.94172 184.06296
9.32 184.80657 178.11943
9.322 185.66623 172.6459
9.324 159.47812 167.70771
9.326 181.61935 163.35161
9.328 170.09459 159.6084
9.33 172.91677 156.4953
9.332 170.55968 154.01815
9.334 167.35317 152.17317
9.336 182.59359 150.94852
9.338 155.59158 150.32546
9.34 137.65666 150.2791
9.342 156.26295 150.77892
9.344 160.00496 151.78885
9.346 178.29031 153.26704
9.348 169.75976 155.16529
9.35 166.80301 157.42811
9.352 167.90572 159.99142
9.354 167.17805 162.78088
9.356 161.22349 165.70998
9.358 157.75291 168.67829
9.36 175.1653 171.57043
9.362 162.49716 174.25711
9.364 173.81602 176.59941
9.366 169.83832 178.45773
9.368 173.14856 179.70526
9.37 161.46209 180.24424
9.372 169.14332 180.02085
9.374 158.59246 179.03413
9.376 196.95254 177.32879
9.378 171.63637 175.01301
9.38 175.99636 172.20186
9.382 164.78318 169.0282
9.384 190.27008 165.62205
9.386 165.96393 162.10148
9.388 167.34696 158.5424
9.39 171.43266 155.07969
9.392 163.7646 151.75415
9.394 164.05428 148.61653
9.396 166.20956 145.70361
9.398 127.20616 143.0398
9.4 138.34497 140.63859
9.402 130.57706 138.50384
9.404 120.30318 136.63093
9.406 137.98466 135.00792
9.408 140.68771 133.61655
9.41 135.0555 132.43331
9.412 147.36443 131.43053
9.414 145.20379 130.57757
9.416 140.69535 129.84231
9.418 139.74251 129.19293
9.42 140.82202 128.59997
9.422 122.26008 128.03842
9.424 121.62542 127.48935
9.426 136.54081 126.94078
9.428 134.12377 126.40401
9.43 132.39755 125.84584
9.432 138.49301 125.28677
9.434 140.42877 124.73277
9.436 125.93145 124.19045
9.438 112.32286 123.66625
9.44 118.5804 123.16591
9.442 125.86073 122.6943
9.444 120.44534 122.25541
9.446 139.15852 121.85243
9.448 125.03075 121.48782
9.45 98.95196 121.1635
9.452 136.85343 120.88092
9.454 114.35517 120.64119
9.456 108.99529 120.44524
9.458 122.81659 120.29398
9.46 126.54624 120.18842
9.462 104.61955 120.12985
9.464 114.72258 120.11997
9.466 119.91577 120.16101
9.468 111.45398 120.25583
9.47 135.74198 120.40799
9.472 123.5276 120.6264
9.474 118.14813 120.90654
9.476 117.89842 121.25847
9.478 119.64265 121.68791
9.48 116.08422 122.20068
9.482 124.69297 122.80238
9.484 120.88107 123.49809
9.486 128.28016 124.29194
9.488 119.81767 125.18669
9.49 114.28612 126.18333
9.492 137.22803 127.28054
9.494 130.27573 128.47428
9.496 108.46155 129.75725
9.498 117.39628 131.11835
9.5 124.24851 132.54206
9.502 127.26515 134.00776
9.504 122.35625 135.48908
9.506 129.3807 136.95342
9.508 140.97822 138.36075
9.51 145.57033 139.66943
9.512 128.38236 140.83134
9.514 125.51307 141.80089
9.516 132.19784 142.53945
9.518 132.16212 143.02136
9.52 124.8534 143.24099
9.522 136.77223 143.20617
9.524 140.28324 142.94763
9.526 133.77082 142.50942
9.528 140.29048 141.94265
9.53 142.10472 141.3007
9.532 130.00524 140.63519
9.534 137.23069 139.99385
9.536 137.75431 139.42
9.538 125.43979 138.95307
9.54 122.79722 138.62963
9.542 139.71635 138.48473
9.544 138.708 138.55285
9.546 132.4145 138.86831
9.548 131.49212 139.465
9.55 145.359 140.37557
9.552 130.73988 141.63031
9.554 128.50871 143.25587
9.556 137.78977 145.27396
9.558 143.42089 147.70013
9.56 150.4871 150.54263
9.562 158.97339 153.80125
9.564 151.91043 157.46606
9.566 151.25446 161.51624
9.568 158.14315 165.91816
9.57 161.39657 170.62384
9.572 168.08885 175.56555
9.574 147.55838 180.67303
9.576 165.6134 185.82717
9.578 170.77181 190.90869
9.58 225.07781 195.77203
9.582 203.92293 200.25662
9.584 178.58244 204.19745
9.586 199.98122 207.44056
9.588 206.94489 209.84924
9.59 213.92953 211.38638
9.592 206.70265 211.99907
9.594 217.84155 211.74941
9.596 228.15064 210.72015
9.598 224.38465 209.04658
9.6 193.80318 206.87395
9.602 211.90347 204.3481
9.604 203.15988 201.60455
9.606 196.88567 198.76183
9.608 185.28543 195.91744
9.61 164.71754 193.14534
9.612 179.02169 190.49415
9.614 155.33873 187.98617
9.616 155.31697 185.61756
9.618 161.28098 183.3602
9.62 148.06909 181.16633
9.622 150.03327 178.97414
9.624 177.49222 176.71954
9.626 143.85368 174.34796
9.628 152.83443 171.81535
9.63 139.59939 169.10874
9.632 154.9927 166.23821
9.634 145.37124 163.23538
9.636 123.92206 160.14626
9.638 137.55358 157.02298
9.64 151.47723 153.91696
9.642 127.19299 150.87418
9.644 143.2906 147.93286
9.646 150.43085 145.12294
9.648 138.06693 142.46649
9.65 121.54341 139.97882
9.652 143.01721 137.66954
9.654 128.18248 135.54373
9.656 144.25761 133.60299
9.658 128.97616 131.84622
9.66 135.64082 130.27042
9.662 140.36887 128.87111
9.664 116.56354 127.64273
9.666 117.00759 126.57882
9.668 123.68896 125.67226
9.67 135.24074 124.9154
9.672 132.91051 124.30025
9.674 122.06905 123.81868
9.676 123.71029 123.46249
9.678 128.43552 123.22354
9.68 124.48096 123.09371
9.682 124.9221 123.06487
9.684 139.02495 123.12871
9.686 134.24504 123.27659
9.688 133.28181 123.49928
9.69 119.29552 123.7867
9.692 113.05916 124.12758
9.694 125.47483 124.50911
9.696 117.27827 124.91661
9.698 122.19587 125.33317
9.7 125.14946 125.7395
9.702 135.5553 126.11411
9.704 121.38886 126.43397
9.706 109.21809 126.6759
9.708 124.5252 126.81858
9.71 127.52515 126.84514
9.712 106.16717 126.74542
9.714 129.19854 126.51753
9.716 124.33805 126.16961
9.718 109.53649 125.71229
9.72 123.7905 125.16585
9.722 111.07375 124.55137
9.724 117.1651 123.89007
9.726 132.7343 123.20165
9.728 122.65385 122.50337
9.73 114.1942 121.80976
9.732 122.8949 121.09868
9.734 125.23565 120.44737
9.736 122.77581 119.8288
9.738 104.78158 119.24803
9.74 110.35638 118.7084
9.742 91.00782 118.21174
9.744 117.48104 117.75865
9.746 105.85751 117.34859
9.748 100.63138 116.98019
9.75 102.9379 116.65137
9.752 117.58512 116.35956
9.754 104.85526 116.1018
9.756 127.98876 115.87498
9.758 126.91522 115.6759
9.76 125.05372 115.50142
9.762 120.15142 115.34276
9.764 117.83762 115.20865
9.766 113.12733 115.09075
9.768 120.00437 114.98673
9.77 124.65774 114.89457
9.772 128.28186 114.81249
9.774 119.24673 114.73899
9.776 105.60625 114.67942
9.778 137.55299 114.60061
9.78 117.10668 114.54604
9.782 122.02495 114.49607
9.784 113.58849 114.45012
9.786 98.20057 114.4077
9.788 91.49106 114.3684
9.79 119.75835 114.33063
9.792 112.69609 114.29669
9.794 132.06733 114.26509
9.796 135.10542 114.23565
9.798 101.29667 114.20821
9.8 114.00372 114.18595
9.802 109.73759 114.16218
9.804 116.43793 114.14011
9.806 123.54685 114.11965
9.808 117.37812 114.10075
9.81 120.02973 114.08334
9.812 125.06917 114.06738
9.814 108.94888 114.05283
9.816 119.07999 114.03964
9.818 107.04772 114.0278
9.82 104.76746 114.01727
9.822 123.15877 114.00805
9.824 117.64909 114.00011
9.826 123.70887 113.99345
9.828 109.9391 113.98806
9.83 118.14627 113.98373
9.832 108.49337 113.98103
9.834 129.33188 113.9795
9.836 101.88306 113.97929
9.838 114.32726 113.98042
9.84 115.77956 113.98292
9.842 110.5037 113.98686
9.844 111.2792 113.99227
9.846 107.81015 114.00321
9.848 120.08736 114.01182
9.85 119.17077 114.02217
9.852 99.94831 114.03441
9.854 118.47326 114.04869
9.856 111.822 114.03836
9.858 104.28031 114.05747
9.86 103.37056 114.07937
9.862 116.81089 114.10445
9.864 115.3055 114.13333
9.866 113.18141 114.16617
9.868 95.87225 114.20381
9.87 107.13706 114.24698
9.872 108.13349 114.29656
9.874 127.68007 114.35355
9.876 124.96951 114.41912
9.878 116.43599 114.49453
9.88 124.01971 114.58187
9.882 115.87288 114.68139
9.884 98.42249 114.79541
9.886 125.82793 114.92566
9.888 113.31162 115.07393
9.89 125.42572 115.24202
9.892 116.95684 115.43165
9.894 118.50847 115.6444
9.896 105.43724 115.88164
9.898 140.98469 116.14445
9.9 121.87886 116.43348
9.902 105.71997 116.74884
9.904 118.41854 117.09001
9.906 135.58595 117.45566
9.908 125.62156 117.84352
9.91 119.87045 118.25025
9.912 112.0546 118.67132
9.914 117.68896 119.10097
9.916 106.05232 119.53223
9.918 115.44315 119.95712
9.92 99.92582 120.36693
9.922 127.86981 120.75265
9.924 106.45606 121.10542
9.926 111.45589 121.41683
9.928 99.76327 121.67917
9.93 113.83192 121.88557
9.932 105.29333 122.03104
9.934 113.28195 122.10963
9.936 122.4175 122.1199
9.938 101.99567 122.0624
9.94 129.91011 121.94094
9.942 114.1079 121.76267
9.944 99.15424 121.48736
9.946 117.17514 121.22732
9.948 121.34072 120.94496
9.95 113.44777 120.65286
9.952 113.46593 120.36288
9.954 116.35422 120.08577
9.956 118.07192 119.83073
9.958 113.82626 119.60694
9.96 112.74387 119.4216
9.962 99.03253 119.28158
9.964 118.85258 119.19332
9.966 110.32094 119.16303
9.968 119.44312 119.19687
9.97 109.98306 119.30112
9.972 102.16689 119.48232
9.974 115.91681 119.74731
9.976 142.00566 120.10333
9.978 120.93461 120.55799
9.98 133.69125 121.11917
9.982 124.08644 121.79497
9.984 129.8017 122.59347
9.986 112.69928 123.5225
9.988 131.17461 124.58936
9.99 138.92555 125.80044
9.992 138.30929 127.16081
9.994 119.82209 128.67375
9.996 152.04828 130.34024
9.998 141.00532 132.15834
10 122.0704 134.12253
10.002 158.54832 136.22292
10.004 145.1234 138.44443
10.006 122.88332 140.76592
10.008 150.13718 143.15946
10.01 162.33237 145.5902
10.012 131.26198 148.01557
10.014 152.88642 150.38823
10.016 148.74141 152.6549
10.018 144.52323 154.77074
10.02 164.10266 156.68791
10.022 140.84553 158.36982
10.024 158.65502 159.79098
10.026 146.01697 160.93756
10.028 161.00057 161.80615
10.03 146.53123 162.40133
10.032 137.81166 162.73288
10.034 135.81813 162.81319
10.036 155.05062 162.65405
10.038 145.76587 162.26614
10.04 161.64699 161.65759
10.042 156.15116 160.83505
10.044 145.49366 159.8061
10.046 142.05062 158.58255
10.048 159.69262 157.18338
10.05 124.57532 155.63627
10.052 139.67147 153.97682
10.054 149.4478 152.24578
10.056 152.36251 150.48509
10.058 144.64741 148.73385
10.06 154.53036 147.02514
10.062 117.24542 145.38397
10.064 147.83871 143.82641
10.066 145.33261 142.35965
10.068 144.89101 140.98276
10.07 143.40251 139.68804
10.072 118.03483 138.46299
10.074 132.91354 137.30514
10.076 145.285 136.17479
10.078 132.42383 135.07253
10.08 145.65741 133.9913
10.082 141.86449 132.92971
10.084 144.15537 131.89175
10.086 137.16992 130.88551
10.088 132.29612 129.92135
10.09 144.2779 129.01014
10.092 122.24187 128.16188
10.094 136.11967 127.38484
10.096 130.92447 126.6865
10.098 142.97079 126.06808
10.1 133.32986 125.53266
10.102 125.0511 125.07999
10.104 132.75775 124.7079
10.106 131.27687 124.4124
10.108 146.93047 124.18773
10.11 136.49983 124.0263
10.112 117.46117 123.9187
10.114 138.20061 123.85372
10.116 128.01475 123.8184
10.118 125.5207 123.79836
10.12 114.94723 123.77837
10.122 120.53782 123.74322
10.124 134.46926 123.67899
10.126 128.96853 123.57435
10.128 133.5805 123.42188
10.13 119.90829 123.21882
10.132 109.98128 122.96704
10.134 116.13845 122.6737
10.136 109.88335 122.34547
10.138 118.6847 121.99472
10.14 129.29928 121.63164
10.142 115.29156 121.26782
10.144 117.22397 120.91008
10.146 121.31798 120.57326
10.148 116.87859 120.26223
10.15 122.98593 119.9836
10.152 124.9596 119.74291
10.154 129.10889 119.5447
10.156 120.15643 119.39256
10.158 142.2918 119.28917
10.16 113.42946 119.23632
10.162 130.25865 119.23485
10.164 126.84492 119.28478
10.166 107.53191 119.38163
10.168 139.06842 119.53067
10.17 120.70735 119.72556
10.172 121.96109 119.96258
10.174 122.3318 120.23699
10.176 123.8142 120.54296
10.178 134.13966 120.8735
10.18 123.51519 121.22039
10.182 135.94734 121.57402
10.184 144.52342 121.92348
10.186 134.29393 122.25668
10.188 137.71306 122.56074
10.19 135.39148 122.82277
10.192 156.64148 123.03093
10.194 150.1023 123.17576
10.196 166.10069 123.25135
10.198 183.74364 123.25626
10.2 179.81583 123.19371
10.202 293.0306 123.07109
10.204 443.76781 122.89893
10.206 335.44918 122.68955
10.208 207.35333 122.45594
10.21 155.46952 122.21073
10.212 138.92833 121.96572
10.214 172.85263 121.73156
10.216 151.52123 121.51778
10.218 152.93079 121.33295
10.22 134.76975 121.18016
10.222 131.71368 121.07585
10.224 133.05616 121.02218
10.226 136.92983 121.02581
10.228 135.45036 121.09324
10.23 135.98625 121.23131
10.232 140.11827 121.44709
10.234 121.16973 121.74808
10.236 142.25433 122.1422
10.238 141.06286 122.63791
10.24 122.57145 123.24412
10.242 127.47767 123.97012
10.244 129.74942 124.82544
10.246 140.85214 125.81963
10.248 124.35676 126.96204
10.25 134.56571 128.26142
10.252 113.41055 129.72564
10.254 142.66063 131.36124
10.256 140.84895 133.17302
10.258 138.7217 135.16357
10.26 154.65729 137.3328
10.262 131.48009 139.67742
10.264 131.52947 142.19036
10.266 159.16262 144.86014
10.268 152.9563 147.67024
10.27 134.93249 150.59841
10.272 159.88992 153.61616
10.274 160.93736 156.68851
10.276 180.55403 159.77436
10.278 159.34906 162.82829
10.28 169.75867 165.80092
10.282 170.45264 168.64618
10.284 184.95515 171.32424
10.286 175.58593 173.80768
10.288 158.57597 176.08598
10.29 169.21979 178.16777
10.292 163.17503 180.07953
10.294 199.81357 181.86105
10.296 167.80882 183.55849
10.298 181.22371 185.21706
10.3 165.84912 186.87444
10.302 181.4905 188.55636
10.304 161.32855 190.27411
10.306 192.28457 192.02382
10.308 162.95325 193.78659
10.31 181.33573 195.52852
10.312 169.94264 197.20193
10.314 181.26355 198.7438
10.316 184.67239 200.08358
10.318 196.63144 201.12303
10.32 177.4719 201.77637
10.322 173.04716 201.95701
10.324 190.86578 201.59125
10.326 167.66303 200.62112
10.328 176.80341 199.05411
10.33 187.14271 196.90438
10.332 189.07804 194.20771
10.334 165.48356 191.04294
10.336 185.45376 187.4957
10.338 210.16301 183.65648
10.34 174.25572 179.61376
10.342 160.15887 175.44987
10.344 173.83174 171.24088
10.346 188.9157 167.04762
10.348 172.59029 162.92869
10.35 166.16286 158.9321
10.352 168.15515 155.09782
10.354 164.52108 151.45793
10.356 161.34765 148.04119
10.358 165.98816 144.85583
10.36 140.42499 141.91627
10.362 149.95891 139.22636
10.364 154.50644 136.78449
10.366 152.44195 134.58478
10.368 153.53774 132.61718
10.37 147.95684 130.86996
10.372 139.29136 129.32797
10.374 151.83072 127.97627
10.376 133.61184 126.799
10.378 132.87632 125.78035
10.38 135.37559 124.90504
10.382 143.3706 124.15867
10.384 107.89455 123.52799
10.386 133.65245 123.00116
10.388 134.85105 122.56786
10.39 130.4497 122.21939
10.392 130.10266 121.94875
10.394 128.40106 121.75067
10.396 124.78391 121.6216
10.398 134.33067 121.54545
10.4 113.47535 121.55063
10.402 134.1643 121.62436
10.404 133.12232 121.76977
10.406 130.78863 121.9915
10.408 142.49983 122.29562
10.41 123.05028 122.6895
10.412 140.14852 123.18163
10.414 137.93186 123.78142
10.416 131.30613 124.4989
10.418 117.13867 125.34439
10.42 123.94272 126.32818
10.422 139.40847 127.45998
10.424 129.99981 128.75315
10.426 148.77372 130.20559
10.428 143.91445 131.82691
10.43 144.00456 133.61933
10.432 142.75962 135.58163
10.434 159.65282 137.70846
10.436 145.20883 139.9896
10.438 153.62332 142.40922
10.44 146.35128 144.94505
10.442 133.55242 147.56757
10.444 154.05757 150.24041
10.446 155.83759 152.91541
10.448 174.72264 155.53923
10.45 140.95802 158.04963
10.452 161.919 160.38271
10.454 155.28457 162.45834
10.456 148.1938 164.21042
10.458 174.47578 165.57421
10.46 185.95326 166.49566
10.462 172.85106 166.93707
10.464 155.57333 166.87647
10.466 159.0225 166.31623
10.468 141.9246 165.27925
10.47 159.37969 163.80827
10.472 162.08416 161.96214
10.474 139.0817 159.81051
10.476 167.72953 157.42799
10.478 140.26126 154.88879
10.48 166.4849 152.26255
10.482 162.43109 149.61178
10.484 164.23632 146.9905
10.486 172.12964 144.44413
10.488 159.90139 142.00985
10.49 169.71254 139.71741
10.492 154.69524 137.58997
10.494 160.49977 135.64496
10.496 170.32199 133.8949
10.498 157.28853 132.34812
10.5 160.03585 131.00944
10.502 142.62986 129.88074
10.504 143.23625 128.96154
10.506 137.23258 128.24943
10.508 136.6957 127.74052
10.51 140.06271 127.4297
10.512 128.81411 127.31096
10.514 150.30167 127.37746
10.516 135.75544 127.62163
10.518 140.94587 128.03509
10.52 144.20813 128.60857
10.522 146.73336 129.33163
10.524 118.91307 130.19243
10.526 140.25891 131.1773
10.528 158.01714 132.27036
10.53 130.3644 133.45308
10.532 126.97116 134.70385
10.534 157.37799 135.99768
10.536 138.98893 137.30608
10.538 137.4813 138.59823
10.54 141.40861 139.8378
10.542 130.27089 140.9897
10.544 144.5208 142.0177
10.546 141.67481 142.88696
10.548 156.41403 143.56564
10.55 143.14247 144.0264
10.552 126.74157 144.24796
10.554 141.41619 144.21657
10.556 133.66683 143.92752
10.558 142.69908 143.38623
10.56 154.28654 142.60853
10.562 138.62039 141.61978
10.564 141.83704 140.45277
10.566 149.7483 139.14485
10.568 138.98176 137.73242
10.57 127.78189 136.25803
10.572 126.01231 134.7538
10.574 138.73446 133.24998
10.576 128.37585 131.77218
10.578 120.28814 130.34126
10.58 134.96216 128.97378
10.582 126.0469 127.68231
10.584 145.45674 126.47599
10.586 120.14832 125.36098
10.588 135.4584 124.34083
10.59 126.45823 123.41697
10.592 128.35172 122.5894
10.594 122.26705 121.8556
10.596 132.39847 121.21306
10.598 127.08759 120.65815
10.6 115.70506 120.18676
10.602 126.5528 119.79518
10.604 102.61581 119.47801
10.606 114.57304 119.23183
10.608 135.64437 119.05303
10.61 125.13785 118.93855
10.612 127.90007 118.88591
10.614 140.87463 118.89325
10.616 128.0937 118.95936
10.618 117.79079 119.08358
10.62 144.0639 119.26586
10.622 126.79398 119.50613
10.624 111.85116 119.80493
10.626 124.20216 120.16274
10.628 122.72507 120.57989
10.63 133.20094 121.05638
10.632 134.24983 121.59166
10.634 113.53493 122.18439
10.636 136.14148 122.83226
10.638 132.89533 123.53165
10.64 121.98691 124.27751
10.642 127.53039 125.06314
10.644 140.06152 125.87998
10.646 144.40064 126.71759
10.648 116.59163 127.56481
10.65 126.1087 128.40513
10.652 134.21267 129.22419
10.654 124.99212 130.0053
10.656 124.93103 130.73117
10.658 122.30501 131.3844
10.66 116.0641 131.94865
10.662 139.75754 132.4075
10.664 134.38154 132.74857
10.666 118.94078 132.96544
10.668 128.41944 133.05045
10.67 119.79017 133.00917
10.672 141.48011 132.85175
10.674 125.9941 132.59448
10.676 156.1725 132.25829
10.678 133.31257 131.86678
10.68 137.06079 131.44437
10.682 136.64826 131.0146
10.684 135.65807 130.59914
10.686 132.09753 130.21721
10.688 120.46605 129.88531
10.69 125.8646 129.61736
10.692 138.10715 129.42479
10.694 113.76036 129.31685
10.696 129.55131 129.30074
10.698 136.97957 129.382
10.7 126.68027 129.56847
10.702 133.30206 129.85589
10.704 146.0656 130.25079
10.706 152.97297 130.75625
10.708 145.58274 131.37626
10.71 144.92185 132.11622
10.712 150.84459 132.98308
10.714 141.50038 133.9851
10.716 143.01572 135.13115
10.718 150.0803 136.42969
10.72 150.90488 137.8876
10.722 145.49645 139.50885
10.724 148.17547 141.29419
10.726 160.07418 143.23902
10.728 148.42508 145.33369
10.73 159.83808 147.56259
10.732 147.22951 149.90428
10.734 156.34824 152.32937
10.736 174.63081 154.8032
10.738 166.17951 157.28397
10.74 153.33823 159.72333
10.742 140.39382 162.06617
10.744 162.51264 164.25304
10.746 168.10048 166.21893
10.748 170.06612 167.89774
10.75 163.37278 169.22597
10.752 137.97321 170.14841
10.754 159.23618 170.62432
10.756 151.19215 170.63295
10.758 148.50348 170.17684
10.76 152.63594 169.28182
10.762 141.02369 167.99652
10.764 136.92151 166.3743
10.766 171.9386 164.48615
10.768 148.85734 162.39624
10.77 153.72302 160.17266
10.772 161.79855 157.86779
10.774 159.56802 155.52723
10.776 164.85275 153.18693
10.778 146.65997 150.87408
10.78 142.72244 148.60859
10.782 166.37556 146.40497
10.784 157.246 144.27429
10.786 142.74089 142.22592
10.788 122.29369 140.26874
10.79 142.72108 138.41231
10.792 147.76716 136.66491
10.794 130.94741 135.03605
10.796 163.06848 133.53385
10.798 138.69477 132.16505
10.8 138.41897 130.93454
10.802 132.99845 129.84533
10.804 135.4957 128.89853
10.806 134.41842 128.09364
10.808 146.97986 127.42871
10.81 140.9619 126.90064
10.812 136.48657 126.50531
10.814 115.14578 126.23772
10.816 148.59289 126.09201
10.818 144.27284 126.06148
10.82 123.89939 126.1385
10.822 144.89416 126.31441
10.824 144.97564 126.57935
10.826 132.14986 126.91187
10.828 141.2368 127.31973
10.83 126.7335 127.77817
10.832 150.30045 128.27084
10.834 155.16538 128.77944
10.836 132.57312 129.28392
10.838 137.67739 129.76098
10.84 126.89801 130.19228
10.842 120.64546 130.55421
10.844 135.83514 130.82673
10.846 168.72861 130.99283
10.848 136.19377 131.03985
10.85 101.07316 130.96017
10.852 137.93842 130.7521
10.854 130.88006 130.42092
10.856 116.34494 129.97509
10.858 136.9321 129.42605
10.86 140.10403 128.79297
10.862 132.63522 128.09302
10.864 139.93737 127.34583
10.866 108.22016 126.5697
10.868 137.79348 125.78145
10.87 140.10961 124.99599
10.872 116.73615 124.2261
10.874 140.93658 123.48245
10.876 138.47374 122.7737
10.878 149.23072 122.10671
10.88 136.44864 121.48673
10.882 122.9582 120.9176
10.884 132.3037 120.40192
10.886 134.28367 119.94125
10.888 120.69722 119.54011
10.89 136.37466 119.19067
10.892 116.49981 118.8961
10.894 122.05712 118.65518
10.896 115.98236 118.46634
10.898 145.13474 118.32768
10.9 137.21457 118.23709
10.902 121.34228 118.19228
10.904 145.93121 118.19175
10.906 118.98524 118.23111
10.908 112.31165 118.30863
10.91 148.04703 118.42154
10.912 96.92286 118.56086
10.914 121.81089 118.73556
10.916 95.399 118.93622
10.918 122.19422 119.15916
10.92 133.80091 119.40034
10.922 114.83356 119.65524
10.924 121.21622 119.91882
10.926 128.1908 120.1855
10.928 133.16509 120.44915
10.93 133.32093 120.70326
10.932 121.47526 120.94122
10.934 112.25647 121.15675
10.936 122.19568 121.3446
10.938 129.32579 121.50115
10.94 123.34116 121.62511
10.942 123.90646 121.71795
10.944 124.03279 121.78401
10.946 119.47148 121.83025
10.948 123.62661 121.86577
10.95 117.61292 121.90234
10.952 113.75928 121.94898
10.954 126.31061 122.01854
10.956 127.25587 122.12258
10.958 128.73981 122.27231
10.96 120.62176 122.47842
10.962 121.25771 122.75099
10.964 115.87652 123.09947
10.966 121.62216 123.53251
10.968 114.78886 124.05791
10.97 129.60104 124.68237
10.972 144.55596 125.41078
10.974 134.93097 126.24829
10.976 127.00397 127.19648
10.978 118.60523 128.25544
10.98 132.5403 129.42299
10.982 144.49302 130.69437
10.984 133.67677 132.06216
10.986 141.21027 133.51623
10.988 137.11192 135.04375
10.99 135.63565 136.6293
10.992 159.72548 138.25483
10.994 135.52942 139.89949
10.996 162.81774 141.53959
10.998 155.3198 143.14775
11 125.42005 144.69244
11.002 156.68056 146.13767
11.004 130.01302 147.44324
11.006 137.27385 148.56607
11.008 139.3963 149.46255
11.01 130.49416 150.09224
11.012 163.71049 150.42133
11.014 143.71298 150.42893
11.016 128.71788 150.10935
11.018 132.58742 149.47456
11.02 132.33597 148.54553
11.022 144.21399 147.361
11.024 136.4014 145.96528
11.026 139.95881 144.40592
11.028 146.89047 142.72991
11.03 147.21345 140.98106
11.032 129.23166 139.19841
11.034 136.04331 137.41561
11.036 140.6722 135.66081
11.038 127.86084 133.95701
11.04 125.65938 132.3225
11.042 130.40178 130.77134
11.044 131.93011 129.31388
11.046 143.43986 127.95714
11.048 137.40854 126.70526
11.05 120.70869 125.55983
11.052 143.28755 124.52029
11.054 127.97521 123.58422
11.056 140.49443 122.74771
11.058 147.12866 122.00566
11.06 125.32485 121.35211
11.062 134.77235 120.7805
11.064 130.43425 120.28396
11.066 135.5115 119.85553
11.068 146.02207 119.48833
11.07 142.00989 119.17576
11.072 128.2826 118.91157
11.074 127.18834 118.69
11.076 143.29011 118.50577
11.078 141.09682 118.35415
11.08 137.52721 118.23095
11.082 134.64544 118.13023
11.084 128.21685 118.05336
11.086 150.74463 117.99535
11.088 146.03024 117.95393
11.09 146.53986 117.92718
11.092 166.501 117.91352
11.094 181.23719 117.91167
11.096 195.43435 117.92059
11.098 207.07243 117.93947
11.1 181.80853 117.96766
11.102 156.42287 118.00466
11.104 146.88364 118.05012
11.106 139.93217 118.10378
11.108 154.08348 118.1652
11.11 138.0264 118.23485
11.112 118.23188 118.31242
11.114 138.12077 118.39797
11.116 126.68711 118.49158
11.118 129.43165 118.59342
11.12 140.93069 118.70366
11.122 148.0834 118.82256
11.124 129.26004 118.95042
11.126 119.89419 119.08757
11.128 128.2111 119.23443
11.13 105.58934 119.39147
11.132 129.23196 119.55921
11.134 120.47382 119.73829
11.136 127.45745 119.92942
11.138 129.43374 120.13344
11.14 122.98033 120.35131
11.142 110.34787 120.58418
11.144 99.37856 120.83339
11.146 131.51764 121.104
11.148 124.58649 121.39103
11.15 130.40199 121.70023
11.152 135.48919 122.03561
11.154 117.61637 122.39803
11.156 143.54421 122.79277
11.158 107.2124 123.2247
11.16 129.52291 123.70029
11.162 146.37298 124.21785
11.164 109.15854 124.80131
11.166 130.34482 125.45308
11.168 113.59713 126.18484
11.17 119.67727 127.01016
11.172 130.28069 127.94477
11.174 118.68738 129.01204
11.176 124.65104 130.22178
11.178 125.90021 131.60057
11.18 140.89232 133.17576
11.182 138.70141 134.9736
11.184 146.89 137.02332
11.186 150.15638 139.35545
11.188 140.88113 142.00167
11.19 124.40075 144.99376
11.192 157.30071 148.36291
11.194 133.76591 152.14406
11.196 153.78353 156.35297
11.198 168.32774 161.0177
11.2 158.22285 166.15547
11.202 164.16541 171.77664
11.204 175.03507 177.88337
11.206 161.71401 184.4643
11.208 188.56898 191.50818
11.21 187.07408 198.97965
11.212 204.24488 206.83268
11.214 186.58551 215.00501
11.216 185.21831 223.41621
11.218 227.33326 231.96611
11.22 241.49142 240.53101
11.222 226.81455 248.96505
11.224 255.45059 257.09836
11.226 270.54896 264.73967
11.228 265.36363 271.68211
11.23 306.43614 277.71342
11.232 309.52758 282.63096
11.234 325.49693 286.26025
11.236 301.00365 288.47434
11.238 329.10299 289.2101
11.24 306.90161 288.47732
11.242 352.67882 286.35877
11.244 352.27629 282.99971
11.246 293.5354 278.5915
11.248 318.24113 273.35159
11.25 281.717 267.50468
11.252 285.23208 261.26741
11.254 302.21285 254.83787
11.256 237.52954 248.40778
11.258 231.599 242.0871
11.26 240.12111 236.01302
11.262 216.62591 230.2782
11.264 228.58485 224.95048
11.266 227.73354 220.07444
11.268 215.50316 215.67289
11.27 199.32769 211.75096
11.272 197.03735 208.28597
11.274 199.72456 205.24585
11.276 203.43615 202.57953
11.278 198.57055 200.22214
11.28 175.66304 198.09805
11.282 196.00586 196.13061
11.284 171.08787 194.23623
11.286 150.04438 192.34668
11.288 161.63803 190.40551
11.29 168.013 188.37541
11.292 184.14973 186.24058
11.294 174.24721 184.00553
11.296 206.80396 181.69247
11.298 156.21411 179.33594
11.3 184.768 176.97757
11.302 160.3045 174.6602
11.304 152.44867 172.42861
11.306 179.31953 170.32049
11.308 181.87807 168.36953
11.31 182.36748 166.60362
11.312 173.08501 165.04478
11.314 164.31675 163.70917
11.316 178.20991 162.60725
11.318 182.89428 161.74391
11.32 179.74083 161.11855
11.322 196.1792 160.7251
11.324 190.91778 160.5521
11.326 192.05136 160.58261
11.328 188.99282 160.79428
11.33 177.99832 161.1622
11.332 176.64831 161.64804
11.334 187.50724 162.21739
11.336 183.25523 162.82983
11.338 193.16545 163.44322
11.34 192.14146 164.0169
11.342 175.48321 164.51464
11.344 176.21959 164.90845
11.346 189.58271 165.18205
11.348 171.67034 165.33326
11.35 201.75316 165.37507
11.352 195.90135 165.33481
11.354 198.23924 165.252
11.356 185.91908 165.1752
11.358 164.59308 165.15876
11.36 213.02083 165.25984
11.362 184.12353 165.5362
11.364 196.27768 166.04461
11.366 184.18604 166.83998
11.368 174.95293 167.97477
11.37 194.52343 169.4987
11.372 175.30421 171.4584
11.374 195.29307 173.89709
11.376 204.26886 176.85401
11.378 184.97916 180.36383
11.38 205.80879 184.4567
11.382 192.19164 189.15341
11.384 189.50922 194.46991
11.386 229.18299 200.41209
11.388 223.3591 206.97513
11.39 207.77305 214.14179
11.392 216.35162 221.88067
11.394 245.28681 230.14446
11.396 248.69322 238.86871
11.398 228.37697 247.97113
11.4 246.4835 257.35211
11.402 258.82087 266.8966
11.404 261.03296 276.47668
11.406 237.51425 285.95682
11.408 292.86741 295.19831
11.41 276.14454 304.06308
11.412 270.09849 312.41565
11.414 303.82269 320.12254
11.416 322.97037 327.04978
11.418 304.01468 333.05989
11.42 326.42734 338.01029
11.422 310.29911 341.76039
11.424 330.05144 344.17698
11.426 349.4491 345.14863
11.428 309.21785 344.60133
11.43 339.43983 342.51277
11.432 342.07022 338.92128
11.434 308.99509 333.92706
11.436 320.92225 327.68496
11.438 326.27089 320.39077
11.44 296.79434 312.26393
11.442 308.35554 303.53014
11.444 309.9203 294.40651
11.446 292.31789 285.0907
11.448 296.6476 275.75424
11.45 288.85619 266.53969
11.452 260.84342 257.55905
11.454 266.50418 248.89665
11.456 269.19605 240.61032
11.458 252.03863 232.73449
11.46 239.60074 225.28345
11.462 234.66196 218.25499
11.464 247.19372 211.63435
11.466 219.46248 205.39846
11.468 232.89369 199.52011
11.47 194.04293 193.9719
11.472 201.69741 188.72927
11.474 198.5335 183.77239
11.476 207.61043 179.08674
11.478 224.43995 174.66255
11.48 173.56966 170.49346
11.482 194.93306 166.57491
11.484 198.3632 162.90277
11.486 168.98427 159.47229
11.488 190.3999 156.27761
11.49 183.11615 153.31166
11.492 169.83447 150.56628
11.494 177.80535 148.03256
11.496 156.19379 145.70114
11.498 171.99956 143.56248
11.5 151.12968 141.60713
11.502 148.61862 139.82581
11.504 152.17003 138.20959
11.506 149.37807 136.7499
11.508 151.21049 135.43985
11.51 171.67194 134.26906
11.512 123.59272 133.23151
11.514 133.2654 132.32032
11.516 130.41554 131.52909
11.518 144.56597 130.85188
11.52 157.22849 130.28329
11.522 131.12167 129.81841
11.524 137.57314 129.45282
11.526 128.49693 129.18258
11.528 112.65391 129.00416
11.53 142.32965 128.91441
11.532 117.1184 128.91043
11.534 123.90439 128.98948
11.536 127.12182 129.14889
11.538 123.02437 129.38589
11.54 139.77118 129.69748
11.542 132.74829 130.0803
11.544 124.09695 130.53021
11.546 125.53371 131.04316
11.548 120.3221 131.61348
11.55 143.80502 132.23479
11.552 142.36165 132.89948
11.554 120.88227 133.59864
11.556 156.33606 134.32179
11.558 142.88142 135.05681
11.56 118.44244 135.78935
11.562 141.76077 136.5052
11.564 147.95754 137.18709
11.566 114.27815 137.8181
11.568 159.75538 138.38193
11.57 134.33954 138.86446
11.572 146.22601 139.25546
11.574 136.82308 139.5502
11.576 129.93081 139.75061
11.578 146.60596 139.8673
11.58 165.84053 139.9131
11.582 152.17159 139.9112
11.584 159.04764 139.88745
11.586 144.55728 139.87032
11.588 139.28026 139.88933
11.59 160.38667 139.97394
11.592 137.92559 140.15265
11.594 147.59249 140.45251
11.596 148.26143 140.89878
11.598 149.82888 141.5147
11.6 119.50718 142.32134
11.602 150.36819 143.33741
11.604 131.98965 144.57908
11.606 124.33481 146.05968
11.608 152.74586 147.79015
11.61 134.77373 149.77631
11.612 157.84376 152.02098
11.614 181.99662 154.52331
11.616 166.68544 157.2773
11.618 136.33066 160.27168
11.62 169.49199 163.48928
11.622 160.95474 166.9064
11.624 174.20972 170.492
11.626 147.22345 174.20694
11.628 165.23438 178.00331
11.63 195.855 181.824
11.632 190.19456 185.60288
11.634 191.9576 189.26593
11.636 210.33345 192.73528
11.638 182.18797 195.92673
11.64 231.28614 198.7648
11.642 227.79493 201.18271
11.644 207.23698 203.12997
11.646 237.62487 204.57708
11.648 233.02114 205.51744
11.65 209.18909 205.96617
11.652 231.89651 205.95835
11.654 219.67084 205.5332
11.656 235.90262 204.73985
11.658 223.71076 203.63075
11.66 235.63672 202.24638
11.662 221.60346 200.62214
11.664 222.55899 198.78598
11.666 218.61383 196.76007
11.668 202.85652 194.56244
11.67 240.56681 192.21528
11.672 219.77184 189.7409
11.674 223.52434 187.16894
11.676 196.06511 184.53597
11.678 200.26017 181.88477
11.68 180.79972 179.2623
11.682 196.30038 176.71677
11.684 185.91194 174.29475
11.686 205.47461 172.0363
11.688 197.39559 169.98205
11.69 195.57691 168.15863
11.692 201.27882 166.58721
11.694 190.46413 165.28143
11.696 160.9602 164.24642
11.698 173.56628 163.4812
11.7 182.2968 162.97764
11.702 160.3573 162.72123
11.704 175.35337 162.69124
11.706 159.16023 162.86113
11.708 167.28122 163.19817
11.71 164.45859 163.66428
11.712 154.74485 164.21582
11.714 173.19097 164.80429
11.716 151.90034 165.37734
11.718 155.16032 165.88064
11.72 156.25265 166.26048
11.722 159.79483 166.46606
11.724 149.89389 166.45707
11.726 149.41317 166.20351
11.728 152.45129 165.6899
11.73 153.94544 164.91597
11.732 129.6372 163.89574
11.734 148.73644 162.65481
11.736 146.5066 161.22679
11.738 167.90856 159.64938
11.74 156.49682 157.96094
11.742 168.0347 156.19792
11.744 170.11961 154.39317
11.746 157.84919 152.57514
11.748 140.19396 150.76758
11.75 161.32293 148.98964
11.752 148.51514 147.25615
11.754 145.7373 145.5779
11.756 151.28137 143.96207
11.758 142.35695 142.41263
11.76 134.5371 140.93103
11.762 131.83465 139.51692
11.764 155.01018 138.16892
11.766 155.12732 136.8855
11.768 132.88785 135.66564
11.77 131.7963 134.50902
11.772 145.88797 133.41682
11.774 142.28465 132.39092
11.776 138.26588 131.43369
11.778 125.69402 130.54694
11.78 124.17275 129.73424
11.782 143.06858 128.99824
11.784 140.50624 128.3366
11.786 136.09878 127.75119
11.788 174.86622 127.24142
11.79 154.31726 126.80917
11.792 147.14232 126.4462
11.794 137.2902 126.15305
11.796 124.13917 125.92654
11.798 140.65471 125.76298
11.8 121.71425 125.65775
11.802 131.26478 125.60989
11.804 132.98017 125.60562
11.806 137.51936 125.64238
11.808 149.77465 125.71436
11.81 133.15578 125.81021
11.812 147.67728 125.92232
11.814 148.25776 126.04081
11.816 142.74723 126.15487
11.818 126.21412 126.25361
11.82 113.18594 126.32622
11.822 118.57888 126.36272
11.824 128.35135 126.35467
11.826 126.50066 126.2959
11.828 120.9995 126.18308
11.83 111.69621 126.01591
11.832 127.32773 125.79706
11.834 133.8926 125.5317
11.836 134.31691 125.22684
11.838 119.98345 124.8906
11.84 127.38655 124.5315
11.842 135.55272 124.1579
11.844 134.85825 123.77765
11.846 130.98423 123.39783
11.848 126.26031 123.02466
11.85 128.85863 122.66353
11.852 135.69452 122.31901
11.854 129.80339 121.99491
11.856 124.70111 121.6937
11.858 135.66825 121.41933
11.86 121.50921 121.17311
11.862 116.83804 120.95757
11.864 117.26423 120.77187
11.866 129.13617 120.62093
11.868 112.02045 120.49881
11.87 102.44755 120.40886
11.872 126.85622 120.35101
11.874 108.62464 120.32498
11.876 127.22055 120.33037
11.878 135.72321 120.36664
11.88 129.64111 120.43318
11.882 123.51508 120.52932
11.884 121.762 120.65434
11.886 126.73594 120.8075
11.888 124.92058 120.98805
11.89 119.39032 121.19525
11.892 141.07975 121.42833
11.894 123.58348 121.68654
11.896 131.96295 121.96915
11.898 121.67206 122.27538
11.9 116.13828 122.60448
11.902 122.44032 122.95572
11.904 129.9579 123.32841
11.906 120.97792 123.72196
11.908 122.0922 124.13603
11.91 123.23028 124.5707
11.912 130.80696 125.02666
11.914 124.54197 125.50562
11.916 118.63078 126.01055
11.918 122.07634 126.54607
11.92 115.17117 127.1187
11.922 137.27553 127.73702
11.924 148.10024 128.41168
11.926 145.13177 129.15534
11.928 160.66664 129.98242
11.93 129.98027 130.9089
11.932 121.95607 131.95202
11.934 164.86915 133.13001
11.936 133.33557 134.4619
11.938 127.47345 135.96725
11.94 135.26311 137.66596
11.942 135.3348 139.57804
11.944 141.77331 141.72337
11.946 154.01002 144.12133
11.948 150.94427 146.79044
11.95 145.9 149.74754
11.952 157.55719 153.00816
11.954 160.87953 156.58413
11.956 165.78723 160.48374
11.958 154.03463 164.71052
11.96 170.33324 169.2622
11.962 172.66159 174.12606
11.964 158.14995 179.29274
11.966 174.91657 184.73296
11.968 172.45967 190.41134
11.97 170.38141 196.28153
11.972 217.35828 202.28509
11.974 205.03485 208.35032
11.976 213.04223 214.39133
11.978 246.17466 220.30783
11.98 314.12485 225.98477
11.982 328.12746 231.29572
11.984 279.1082 236.10676
11.986 247.03025 240.28085
11.988 222.68979 243.69053
11.99 204.28301 246.22594
11.992 222.58013 247.806
11.994 200.44311 248.38689
11.996 199.5557 247.96675
11.998 225.76662 246.58552
12 223.77933 244.31876
12.002 196.8063 241.27001
12.004 212.29592 237.5529
12.006 231.25192 233.30592
12.008 202.19325 228.64624
12.01 195.63581 223.68869
12.012 210.52647 218.53611
12.014 203.4862 213.27758
12.016 200.85297 207.99168
12.018 200.95544 202.74401
12.02 192.16904 197.5917
12.022 192.35052 192.58436
12.024 193.38695 187.76958
12.026 188.91296 183.17539
12.028 181.97968 178.83871
12.03 202.54353 174.78428
12.032 169.95399 171.03083
12.034 175.17077 167.59025
12.036 191.38902 164.46755
12.038 168.18703 161.66114
12.04 179.41969 159.16292
12.042 168.59647 156.95923
12.044 167.88971 155.03117
12.046 169.79798 153.35531
12.048 180.90583 151.90433
12.05 163.50382 150.64771
12.052 149.24175 149.55251
12.054 150.30268 148.58433
12.056 140.17211 147.70839
12.058 173.37676 146.89101
12.06 141.62759 146.10072
12.062 174.5697 145.31019
12.064 139.05502 144.4972
12.066 152.76987 143.64551
12.068 160.66672 142.74591
12.07 128.22877 141.79331
12.072 147.07423 140.78991
12.074 152.55269 139.74154
12.076 137.57227 138.6571
12.078 150.78098 137.54735
12.08 132.22957 136.42386
12.082 129.60351 135.29849
12.084 127.89082 134.18161
12.086 136.5199 133.08346
12.088 124.04599 132.01282
12.09 150.46518 130.977
12.092 138.5848 129.98233
12.094 129.47949 129.036
12.096 135.41809 128.13697
12.098 140.65031 127.29047
12.1 125.46784 126.49834
12.102 144.00524 125.76155
12.104 125.82174 125.08033
12.106 126.18591 124.45419
12.108 129.42161 123.88209
12.11 120.64968 123.36246
12.112 145.6003 122.8933
12.114 120.06403 122.47231
12.116 130.35841 122.09693
12.118 121.17634 121.76445
12.12 111.40402 121.47208
12.122 125.79667 121.217
12.124 114.84467 120.99774
12.126 125.93204 120.80905
12.128 128.9119 120.64967
12.13 128.26324 120.51721
12.132 105.65318 120.40944
12.134 123.71582 120.32435
12.136 125.97173 120.26009
12.138 116.84618 120.21502
12.14 135.00061 120.18765
12.142 137.40038 120.17669
12.144 121.70922 120.18101
12.146 119.43292 120.19961
12.148 116.32528 120.23163
12.15 119.64975 120.27848
12.152 120.69372 120.33522
12.154 139.07641 120.40345
12.156 116.1346 120.48054
12.158 102.10147 120.57045
12.16 113.15987 120.67072
12.162 124.05408 120.78117
12.164 110.41986 120.90173
12.166 141.13385 121.02939
12.168 134.7472 121.17074
12.17 116.93314 121.32323
12.172 126.57107 121.48775
12.174 125.75363 121.66551
12.176 118.40906 121.85805
12.178 135.44263 122.0672
12.18 111.42713 122.29507
12.182 132.82549 122.54402
12.184 134.68488 122.81658
12.186 118.36349 123.11546
12.188 111.38192 123.44353
12.19 120.41907 123.80381
12.192 108.63443 124.1995
12.194 152.57036 124.63427
12.196 144.17979 125.11116
12.198 122.514 125.63437
12.2 135.13904 126.20811
12.202 129.07149 126.83702
12.204 154.54982 127.52613
12.206 136.43289 128.28096
12.208 135.09034 129.10757
12.21 146.01814 130.01256
12.212 125.33304 131.00311
12.214 120.75034 132.08694
12.216 127.72424 133.27237
12.218 121.55237 134.56829
12.22 136.51373 135.98414
12.222 143.85009 137.53005
12.224 137.26225 139.21684
12.226 150.77343 141.05627
12.228 134.66516 143.06113
12.23 146.30867 145.24545
12.232 142.73504 147.6245
12.234 158.06086 150.21473
12.236 149.59784 153.03512
12.238 158.32685 156.09951
12.24 150.15272 159.42643
12.242 171.08744 163.03102
12.244 142.70194 166.92574
12.246 184.51423 171.11933
12.248 179.92762 175.61575
12.25 163.78862 180.41317
12.252 209.58368 185.503
12.254 205.87126 190.86894
12.256 177.61111 196.48504
12.258 187.74229 202.3189
12.26 200.95195 208.32502
12.262 243.04759 214.44888
12.264 225.06102 220.62508
12.266 239.56126 226.7833
12.268 238.80825 232.83729
12.27 243.12899 238.70415
12.272 265.44261 244.30397
12.274 227.6962 249.55612
12.276 276.81427 254.38594
12.278 268.60255 258.73218
12.28 295.67432 262.54372
12.282 299.89222 265.78091
12.284 289.28541 268.41528
12.286 282.63341 270.42936
12.288 305.5247 271.81684
12.29 307.43089 272.58324
12.292 290.78611 272.74638
12.294 285.45807 272.33614
12.296 277.15753 271.39294
12.298 273.847 269.96484
12.3 262.54566 268.10373
12.302 248.10804 265.86123
12.304 262.84128 263.28519
12.306 254.31697 260.41711
12.308 223.50284 257.29094
12.31 242.68065 253.93295
12.312 215.7101 250.36381
12.314 237.08008 246.59527
12.316 229.00937 242.63948
12.318 222.016 238.50668
12.32 207.06317 234.20896
12.322 220.77626 229.76273
12.324 200.15703 225.19049
12.326 201.36021 220.52212
12.328 214.60664 215.79226
12.33 187.0887 211.04217
12.332 194.40011 206.31547
12.334 202.38305 201.65651
12.336 188.28772 197.10849
12.338 184.76127 192.71207
12.34 197.24148 188.50458
12.342 186.26854 184.51957
12.344 173.50577 180.7867
12.346 189.27651 177.33178
12.348 174.80874 174.17683
12.35 187.19164 171.34027
12.352 161.08582 168.83682
12.354 185.94198 166.678
12.356 191.82476 164.87206
12.358 174.12935 163.42419
12.36 182.88737 162.33672
12.362 181.4901 161.60923
12.364 141.31498 161.23868
12.366 178.70973 161.21946
12.368 170.81894 161.54346
12.37 166.34306 162.19999
12.372 168.52332 163.17575
12.374 187.69762 164.45463
12.376 179.91176 166.01768
12.378 176.24124 167.84222
12.38 168.82034 169.90199
12.382 174.46795 172.16636
12.384 152.95932 174.60125
12.386 181.28736 177.16694
12.388 172.93464 179.81971
12.39 164.90024 182.51213
12.392 184.07616 185.19449
12.394 173.86324 187.81695
12.396 190.04428 190.33093
12.398 190.68604 192.69744
12.4 166.45587 194.882
12.402 166.72878 196.86185
12.404 166.23725 198.62523
12.406 211.65721 200.17037
12.408 200.66561 201.50314
12.41 172.49905 202.63358
12.412 187.41684 203.57226
12.414 196.95806 204.32688
12.416 155.19696 204.89972
12.418 169.5988 205.28621
12.42 170.46298 205.47459
12.422 188.42079 205.44673
12.424 163.05227 205.17995
12.426 182.85732 204.64908
12.428 184.03626 203.83002
12.43 169.82804 202.70245
12.432 182.4922 201.25286
12.434 158.76353 199.47685
12.436 169.21881 197.38051
12.438 157.88237 194.98055
12.44 169.68166 192.30345
12.442 171.44926 189.38359
12.444 186.32534 186.26101
12.446 179.87862 182.97863
12.448 170.22472 179.58201
12.45 175.80759 176.11473
12.452 155.82446 172.61892
12.454 175.33295 169.13371
12.456 158.45362 165.69451
12.458 160.8783 162.33254
12.46 153.76756 159.07457
12.462 148.75942 155.94291
12.464 143.39825 152.95556
12.466 148.70772 150.12647
12.468 146.28422 147.46585
12.47 153.65826 144.98061
12.472 131.78644 142.67475
12.474 164.5286 140.54954
12.476 141.83713 138.60423
12.478 139.73497 136.83614
12.48 131.66817 135.24056
12.482 150.10436 133.81298
12.484 123.65157 132.54641
12.486 151.91935 131.43361
12.488 125.36309 130.46673
12.49 130.52955 129.63759
12.492 157.705 128.93774
12.494 125.53252 128.35863
12.496 130.527 127.89087
12.498 103.34904 127.52354
12.5 129.71458 127.2555
12.502 127.37559 127.07439
12.504 110.34639 126.97198
12.506 127.34157 126.94013
12.508 121.71132 126.97074
12.51 139.06187 127.05563
12.512 137.61889 127.18653
12.514 131.56842 127.35492
12.516 135.66502 127.55198
12.518 123.68736 127.76854
12.52 123.42705 127.9948
12.522 125.33991 128.22072
12.524 117.46995 128.43586
12.526 114.7835 128.63204
12.528 122.38516 128.79448
12.53 125.64793 128.91617
12.532 124.03579 128.98846
12.534 122.61678 129.00786
12.536 122.58622 128.96924
12.538 127.26133 128.87307
12.54 127.58532 128.72219
12.542 121.07643 128.52209
12.544 106.33666 128.2804
12.546 130.81534 128.00625
12.548 113.12966 127.70958
12.55 130.84796 127.40051
12.552 117.13556 127.0889
12.554 120.68404 126.78396
12.556 117.17295 126.49408
12.558 108.98371 126.22673
12.56 118.3013 125.98843
12.562 112.83853 125.7847
12.564 117.90765 125.62016
12.566 128.15964 125.49853
12.568 120.67793 125.42262
12.57 145.71885 125.39439
12.572 124.04358 125.41498
12.574 111.01661 125.48465
12.576 103.07324 125.60286
12.578 115.50536 125.76822
12.58 129.62296 125.97853
12.582 104.05188 126.23075
12.584 128.62584 126.52102
12.586 130.6434 126.84475
12.588 145.37666 127.19646
12.59 133.24727 127.57016
12.592 143.07054 127.9593
12.594 111.43543 128.35701
12.596 119.56174 128.7564
12.598 121.78336 129.15083
12.6 148.07178 129.5335
12.602 117.36516 129.90098
12.604 128.69158 130.24877
12.606 128.44892 130.5748
12.608 127.52906 130.87883
12.61 134.62616 131.16189
12.612 120.56089 131.42927
12.614 136.69074 131.68598
12.616 134.65609 131.93947
12.618 120.23927 132.19858
12.62 126.33565 132.47307
12.622 129.32023 132.77652
12.624 148.05946 133.11255
12.626 132.09612 133.49448
12.628 137.38832 133.93174
12.63 134.21252 134.43303
12.632 113.43902 135.00615
12.634 131.19478 135.65795
12.636 141.45361 136.39417
12.638 122.08697 137.21933
12.64 145.55749 138.13645
12.642 159.40965 139.14698
12.644 137.77523 140.25047
12.646 136.6533 141.44521
12.648 143.38397 142.72485
12.65 121.50698 144.08306
12.652 136.70351 145.51036
12.654 142.10136 146.99501
12.656 151.43893 148.52324
12.658 148.61166 150.07971
12.66 163.56931 151.64805
12.662 141.19815 153.21153
12.664 143.68928 154.7537
12.666 163.75494 156.2589
12.668 165.02794 157.71268
12.67 152.30405 159.10185
12.672 178.07147 160.41448
12.674 152.43466 161.63985
12.676 159.90201 162.76851
12.678 176.56173 163.79262
12.68 161.278 164.70659
12.682 162.26117 165.50791
12.684 157.64666 166.19809
12.686 141.13609 166.78361
12.688 131.78938 167.27505
12.69 155.0961 167.68845
12.692 147.11614 168.04322
12.694 160.94984 168.36099
12.696 165.63035 168.66459
12.698 163.52973 168.9737
12.7 169.58741 169.30718
12.702 178.1146 169.67923
12.704 149.0939 170.09914
12.706 157.97284 170.57069
12.708 170.08034 171.09141
12.71 153.76178 171.65678
12.712 153.65621 172.24916
12.714 169.71373 172.85339
12.716 159.22453 173.44904
12.718 153.80964 174.01452
12.72 145.41715 174.52923
12.722 148.14215 174.97609
12.724 173.5931 175.34474
12.726 144.84073 175.6301
12.728 145.51671 175.83824
12.73 180.02096 175.98301
12.732 151.24379 176.08558
12.734 162.33395 176.17248
12.736 184.64204 176.27303
12.738 148.54798 176.41684
12.74 155.02975 176.63152
12.742 155.83935 176.94091
12.744 148.1699 177.36375
12.746 159.23986 177.91283
12.748 143.55556 178.59455
12.75 155.82308 179.40866
12.752 184.7409 180.34818
12.754 154.64656 181.39949
12.756 166.97763 182.54253
12.758 139.38575 183.75108
12.76 165.03841 184.99338
12.762 159.18879 186.233
12.764 161.21748 187.43014
12.766 163.75139 188.54335
12.768 139.82335 189.53147
12.77 168.12268 190.35728
12.772 174.46953 190.98816
12.774 171.37387 191.39932
12.776 162.47375 191.57479
12.778 159.70771 191.50735
12.78 169.35478 191.19781
12.782 146.72892 190.65286
12.784 152.80733 189.88279
12.786 175.02189 188.89921
12.788 161.46621 187.71335
12.79 157.17515 186.33528
12.792 176.00524 184.77448
12.794 171.47127 183.03573
12.796 165.61237 181.13659
12.798 154.2912 179.08679
12.8 176.51244 176.90358
12.802 175.93134 174.60736
12.804 181.86794 172.22316
12.806 157.39943 169.7783
12.808 139.07753 167.30121
12.81 155.92534 164.81981
12.812 163.45986 162.36014
12.814 157.64478 159.94529
12.816 155.62481 157.59474
12.818 169.32306 155.32414
12.82 174.40414 153.14546
12.822 138.11759 151.06735
12.824 139.83966 149.09577
12.826 164.34269 147.23461
12.828 150.7795 145.48645
12.83 150.44691 143.85335
12.832 142.87054 142.33643
12.834 152.499 140.93762
12.836 148.91937 139.65889
12.838 150.49902 138.50246
12.84 144.91311 137.47078
12.842 143.46404 136.56632
12.844 133.63642 135.79157
12.846 148.36572 135.14883
12.848 148.68615 134.64024
12.85 122.33805 134.26773
12.852 129.09383 134.03299
12.854 133.10315 133.93756
12.856 147.52226 133.98273
12.858 141.44769 134.16959
12.86 147.32983 134.49895
12.862 174.12442 134.97132
12.864 139.45256 135.58676
12.866 142.90372 136.34479
12.868 150.0407 137.2443
12.87 138.58247 138.28334
12.872 147.33052 139.45901
12.874 158.38061 140.76728
12.876 158.22061 142.20278
12.878 146.49492 143.75864
12.88 143.3181 145.42621
12.882 180.46147 147.19485
12.884 170.49153 149.05164
12.886 179.67149 150.98116
12.888 162.97789 152.96524
12.89 170.47776 154.9829
12.892 173.77043 157.0104
12.894 166.92715 159.02163
12.896 190.79466 160.98886
12.898 153.67204 162.88383
12.9 173.7179 164.67938
12.902 163.00522 166.35126
12.904 158.54688 167.88012
12.906 161.13946 169.25285
12.908 189.28688 170.46414
12.91 172.08433 171.51657
12.912 167.70182 172.4196
12.914 176.3881 173.18876
12.916 151.16621 173.84321
12.918 156.60832 174.40346
12.92 170.78232 174.88913
12.922 187.89928 175.31687
12.924 161.18019 175.69876
12.926 172.92502 176.04115
12.928 167.74417 176.34399
12.93 161.38516 176.60064
12.932 168.9575 176.79823
12.934 177.70068 176.91846
12.936 164.42552 176.93902
12.938 149.46778 176.83549
12.94 166.60415 176.58363
12.942 172.28054 176.16194
12.944 158.10148 175.55392
12.946 162.28076 174.74996
12.948 144.78186 173.74865
12.95 156.06617 172.55531
12.952 161.87693 171.18333
12.954 160.13647 169.65115
12.956 166.19054 167.98086
12.958 155.15207 166.19665
12.96 166.36697 164.32327
12.962 170.57956 162.38531
12.964 164.93195 160.40677
12.966 163.07126 158.41212
12.968 132.24501 156.42084
12.97 143.75648 154.45547
12.972 147.96444 152.53526
12.974 152.04864 150.67838
12.976 135.33616 148.90082
12.978 141.97094 147.2163
12.98 153.03902 145.63649
12.982 143.54283 144.1692
12.984 128.96827 142.82086
12.986 148.21535 141.59491
12.988 133.9921 140.49226
12.99 146.29761 139.51149
12.992 129.59214 138.64892
12.994 134.77775 137.89875
12.996 131.81929 137.25326
12.998 115.84302 136.70287
13 128.06036 136.23634
13.002 137.60776 135.84095
13.004 131.41484 135.50276
13.006 148.01862 135.20696
13.008 130.37553 134.94091
13.01 132.88555 134.68458
13.012 123.34262 134.42658
13.014 115.76365 134.15456
13.016 122.66841 133.85878
13.018 124.54495 133.53364
13.02 106.08515 133.17372
13.022 119.25453 132.78019
13.024 130.06357 132.35641
13.026 125.74553 131.90798
13.028 131.04113 131.44276
13.03 127.291 130.96973
13.032 138.54411 130.49845
13.034 117.11522 130.03856
13.036 122.58454 129.59942
13.038 127.97743 129.18983
13.04 125.73054 128.81792
13.042 133.66679 128.49105
13.044 106.60214 128.21581
13.046 121.02714 127.99795
13.048 111.32592 127.82577
13.05 112.25737 127.73669
13.052 114.77487 127.71726
13.054 131.54324 127.7698
13.056 134.21565 127.89572
13.058 119.71949 128.09545
13.06 111.55712 128.36839
13.062 134.77701 128.7131
13.064 112.64896 129.12642
13.066 116.66818 129.60466
13.068 111.82284 130.14272
13.07 122.00131 130.73424
13.072 129.72153 131.37153
13.074 112.90648 132.0455
13.076 122.87933 132.74556
13.078 125.91693 133.4596
13.08 130.48865 134.17391
13.082 113.93761 134.87327
13.084 120.16847 135.54111
13.086 146.30168 136.15985
13.088 131.12624 136.71149
13.09 133.35202 137.17838
13.092 140.18438 137.54426
13.094 132.43413 137.79542
13.096 130.98997 137.92151
13.098 123.70708 137.91687
13.1 143.76953 137.78067
13.102 146.20552 137.51707
13.104 147.47849 137.13469
13.106 144.10715 136.6411
13.108 143.09883 136.06047
13.11 114.48243 135.40432
13.112 130.07548 134.68923
13.114 133.76858 133.93139
13.116 125.96553 133.14599
13.118 131.74782 132.34676
13.12 126.35249 131.54636
13.122 143.86993 130.75478
13.124 137.04152 129.98161
13.126 127.49797 129.2345
13.128 150.9278 128.51994
13.13 110.06097 127.84316
13.132 110.57311 127.20832
13.134 113.78765 126.61859
13.136 114.91836 126.07627
13.138 120.98683 125.58287
13.14 136.04825 125.13921
13.142 133.66728 124.74551
13.144 124.80407 124.40151
13.146 118.70566 124.10655
13.148 105.10504 123.85959
13.15 132.3546 123.65943
13.152 115.01225 123.50475
13.154 113.7906 123.39416
13.156 119.5204 123.32634
13.158 125.68219 123.30007
13.16 106.66317 123.31436
13.162 119.31922 123.3685
13.164 113.11864 123.46212
13.166 126.96622 123.59524
13.168 125.6812 123.76835
13.17 116.95764 123.98249
13.172 120.81243 124.23685
13.174 112.02432 124.53795
13.176 113.65822 124.88677
13.178 111.94211 125.28646
13.18 115.77805 125.7411
13.182 130.17458 126.25546
13.184 126.62818 126.83494
13.186 123.86488 127.48563
13.188 116.17517 128.21425
13.19 128.67162 129.0281
13.192 130.75543 129.93503
13.194 124.59212 130.94338
13.196 124.10282 132.06185
13.198 132.20756 133.30019
13.2 132.97419 134.66612
13.202 118.76007 136.16958
13.204 129.24101 137.8197
13.206 137.70706 139.62531
13.208 139.99615 141.5948
13.21 129.51035 143.73591
13.212 142.93522 146.05551
13.214 145.10831 148.55939
13.216 138.42949 151.25196
13.218 147.27874 154.13603
13.22 156.66573 157.21242
13.222 179.68616 160.47972
13.224 165.78513 163.93368
13.226 160.23424 167.56708
13.228 168.19768 171.36915
13.23 199.29399 175.32518
13.232 200.32206 179.41622
13.234 175.93518 183.61892
13.236 202.52189 187.90564
13.238 205.94628 192.24488
13.24 198.66934 196.60219
13.242 226.13187 200.94142
13.244 209.93883 205.22643
13.246 216.70919 209.41691
13.248 227.10597 213.49423
13.25 213.40785 217.42674
13.252 222.18203 221.19443
13.254 231.10473 224.78317
13.256 227.93463 228.18375
13.258 217.24926 231.39048
13.26 247.12131 234.39973
13.262 234.74555 237.20811
13.264 253.05518 239.8095
13.266 234.385 242.1964
13.268 229.3072 244.34596
13.27 236.70135 246.26766
13.272 226.0273 247.92763
13.274 230.96236 249.32172
13.276 245.6295 250.42929
13.278 205.77187 251.23961
13.28 239.32401 251.74752
13.282 233.23432 251.95425
13.284 226.79144 251.86727
13.286 224.2638 251.49911
13.288 234.28374 250.8655
13.29 218.93084 249.98339
13.292 207.13539 248.86928
13.294 228.52319 247.53849
13.296 216.45093 246.00541
13.298 209.62178 244.28499
13.3 228.87588 242.39499
13.302 225.64713 240.35802
13.304 240.27253 238.20441
13.306 212.29418 235.97308
13.308 237.40688 233.71156
13.31 220.15364 231.47645
13.312 213.76016 229.32926
13.314 222.70158 227.33534
13.316 241.29141 225.56193
13.318 226.2297 224.07129
13.32 234.91694 222.92525
13.322 209.94139 222.17938
13.324 217.89397 221.88319
13.326 249.60225 222.0796
13.328 229.52735 222.80481
13.33 213.84542 224.08818
13.332 248.58409 225.9522
13.334 235.40272 228.41242
13.336 225.46715 231.47711
13.338 227.74897 235.14691
13.34 231.87363 239.41417
13.342 252.10038 244.26228
13.344 278.41538 249.6648
13.346 236.55685 255.58459
13.348 272.77785 261.97283
13.35 274.65466 268.76801
13.352 245.45678 275.89499
13.354 254.44736 283.26411
13.356 291.76105 290.77038
13.358 320.38637 298.29364
13.36 283.46481 305.69903
13.362 314.40161 312.83897
13.364 301.23728 319.55671
13.366 313.10109 325.69184
13.368 336.91761 331.08752
13.37 327.36346 335.59933
13.372 301.33921 339.10448
13.374 367.4004 341.51045
13.376 366.47633 342.75973
13.378 333.46833 342.835
13.38 365.32666 341.7563
13.382 381.42483 339.57704
13.384 348.0725 336.37627
13.386 347.98242 332.2513
13.388 344.75704 327.30916
13.39 329.91672 321.66028
13.392 320.60505 315.41364
13.394 332.85029 308.67382
13.396 300.3372 301.53953
13.398 255.78045 294.10331
13.4 301.59716 286.45189
13.402 300.13135 278.66592
13.404 224.7785 270.82172
13.406 264.14637 262.99087
13.408 253.38454 255.2406
13.41 222.59634 247.63362
13.412 261.21642 240.2277
13.414 248.85454 233.07508
13.416 185.98334 226.22175
13.418 218.86041 219.7068
13.42 207.59035 213.56391
13.422 202.44357 207.81357
13.424 201.22189 202.47438
13.426 182.48783 197.55586
13.428 184.78934 193.06068
13.43 169.10747 188.98527
13.432 153.90181 185.32032
13.434 171.44498 182.05149
13.436 178.48027 179.15833
13.438 182.64549 176.6211
13.44 186.91402 174.4118
13.442 156.31938 172.50087
13.444 154.95207 170.85596
13.446 174.40166 169.44235
13.448 138.59259 168.22328
13.45 159.87085 167.16062
13.452 146.21436 166.21555
13.454 152.55501 165.3495
13.456 156.81075 164.52541
13.458 179.47336 163.70912
13.46 146.27662 162.87082
13.462 155.8558 161.98639
13.464 166.7161 161.03845
13.466 160.71283 160.01684
13.468 145.31545 158.91854
13.47 153.27381 157.74699
13.472 142.90716 156.511
13.474 150.75084 155.22305
13.476 135.49512 153.89834
13.478 138.22031 152.55299
13.48 138.69167 151.20309
13.482 147.21635 149.86386
13.484 137.00276 148.54905
13.486 132.46725 147.27061
13.488 146.35869 146.03854
13.49 131.47829 144.8608
13.492 138.36019 143.74347
13.494 139.89818 142.69028
13.496 127.98888 141.70346
13.498 138.86958 140.78323
13.5 150.0543 139.92807
13.502 141.40414 139.13474
13.504 146.14325 138.39837
13.506 124.47342 137.71266
13.508 121.33739 137.07065
13.51 123.9754 136.46253
13.512 111.33848 135.87985
13.514 135.71074 135.30672
13.516 123.51152 134.74767
13.518 123.81533 134.18834
13.52 132.19557 133.6225
13.522 129.61135 133.04579
13.524 120.58388 132.45588
13.526 115.36482 131.85246
13.528 122.73548 131.23698
13.53 124.38947 130.61231
13.532 102.07822 129.98231
13.534 109.69037 129.35109
13.536 124.17388 128.72389
13.538 122.94935 128.10494
13.54 126.74081 127.49849
13.542 119.89308 126.90841
13.544 101.4223 126.33814
13.546 127.25222 125.78736
13.548 120.20415 125.26517
13.55 122.74234 124.7704
13.552 107.73506 124.30476
13.554 107.22954 123.8696
13.556 129.8273 123.46586
13.558 104.16274 123.09418
13.56 111.02015 122.75484
13.562 119.20842 122.44781
13.564 99.46099 122.17275
13.566 121.20618 121.92969
13.568 123.18116 121.71643
13.57 112.29475 121.53245
13.572 122.87395 121.37637
13.574 104.64043 121.24657
13.576 107.04959 121.14131
13.578 118.0252 121.05868
13.58 112.16606 120.99614
13.582 107.78331 120.9516
13.584 111.10352 120.92261
13.586 118.21138 120.90666
13.588 126.39121 120.90103
13.59 98.11656 120.90346
13.592 114.87147 120.91139
13.594 122.98367 120.92265
13.596 106.59152 120.93546
13.598 103.18307 120.9484
13.6 115.06318 120.96085
13.602 112.609 120.97281
13.604 126.3563 120.98507
13.606 116.44101 120.99911
13.608 106.16027 121.01308
13.61 128.94867 121.03756
13.612 100.85819 121.07157
13.614 123.91408 121.1183
13.616 97.10011 121.18097
13.618 107.04067 121.26274
13.62 100.68606 121.36657
13.622 107.99495 121.49512
13.624 104.99739 121.65074
13.626 127.66596 121.83537
13.628 112.04934 122.05051
13.63 109.88686 122.29719
13.632 121.29954 122.57576
13.634 105.70955 122.88657
13.636 114.29406 123.22884
13.638 136.87674 123.60138
13.64 112.96716 124.00231
13.642 136.70519 124.42909
13.644 121.24988 124.87842
13.646 115.50465 125.34622
13.648 127.93846 125.82756
13.65 123.35893 126.31664
13.652 119.63802 126.80675
13.654 139.92717 127.28962
13.656 118.19268 127.75813
13.658 132.72539 128.20249
13.66 123.20484 128.61314
13.662 125.32309 128.98045
13.664 108.24452 129.2952
13.666 100.84494 129.54922
13.668 118.22496 129.73592
13.67 114.03008 129.85093
13.672 127.71375 129.89252
13.674 125.13688 129.86181
13.676 111.19746 129.76276
13.678 124.19085 129.60188
13.68 123.07866 129.3878
13.682 117.33533 129.13051
13.684 116.63378 128.84102
13.686 111.59537 128.53063
13.688 120.33287 128.21052
13.69 132.83368 127.89141
13.692 134.18419 127.58332
13.694 115.03392 127.29546
13.696 91.00234 127.03618
13.698 133.0559 126.81291
13.7 121.74253 126.63223
13.702 123.79579 126.49985
13.704 140.53365 126.42061
13.706 117.86627 126.39857
13.708 120.24687 126.43692
13.71 112.90849 126.53808
13.712 115.20338 126.70364
13.714 140.47211 126.93436
13.716 131.37104 127.23022
13.718 117.42266 127.59035
13.72 120.96533 128.01305
13.722 135.23941 128.4958
13.724 101.09207 129.03445
13.726 119.28899 129.62637
13.728 116.15877 130.26574
13.73 103.87226 130.94664
13.732 127.11504 131.66231
13.734 133.53062 132.40537
13.736 144.78598 133.16691
13.738 139.55232 133.938
13.74 158.28251 134.70884
13.742 134.52628 135.46933
13.744 132.70704 136.20937
13.746 132.36927 136.91939
13.748 131.52615 137.59096
13.75 127.99718 138.21741
13.752 150.65816 138.79439
13.754 146.02983 139.3203
13.756 135.27776 139.79647
13.758 142.1596 140.22702
13.76 140.87036 140.61847
13.762 147.74477 140.97914
13.764 134.33025 141.31836
13.766 134.68672 141.64575
13.768 133.49295 141.97052
13.77 141.93821 142.30101
13.772 133.29779 142.64377
13.774 140.73744 143.00418
13.776 135.08102 143.38585
13.778 145.3614 143.79089
13.78 135.02515 144.22039
13.782 139.93586 144.67421
13.784 138.92848 145.15225
13.786 150.85102 145.65447
13.788 121.35065 146.18094
13.79 142.3378 146.73304
13.792 159.94617 147.31149
13.794 128.28291 147.91853
13.796 152.91022 148.55593
13.798 138.36464 149.22492
13.8 140.92927 149.92553
13.802 167.64734 150.6561
13.804 148.61391 151.4128
13.806 120.02587 152.18938
13.808 158.16283 152.97705
13.81 159.98892 153.76459
13.812 150.25023 154.53866
13.814 163.28236 155.28433
13.816 141.84618 155.9855
13.818 137.65745 156.62595
13.82 144.93929 157.18975
13.822 140.91745 157.66201
13.824 144.47218 158.02879
13.826 125.6347 158.27807
13.828 146.63494 158.3991
13.83 149.65332 158.38366
13.832 155.397 158.22451
13.834 145.54305 157.91681
13.836 137.44013 157.45821
13.838 153.22827 156.84941
13.84 164.72923 156.09456
13.842 154.28057 155.2016
13.844 138.35353 154.1822
13.846 135.6206 153.05138
13.848 128.91403 151.82684
13.85 129.90184 150.52804
13.852 136.14246 149.17521
13.854 146.08697 147.78838
13.856 137.87975 146.38663
13.858 142.80287 144.98744
13.86 123.0579 143.60632
13.862 137.78279 142.2564
13.864 137.70777 140.94916
13.866 144.1469 139.69323
13.868 143.21235 138.49534
13.87 124.54837 137.36021
13.872 132.15468 136.29071
13.874 140.4198 135.28805
13.876 131.73978 134.35198
13.878 132.61432 133.48096
13.88 135.36702 132.67242
13.882 119.61219 131.92301
13.884 137.29714 131.22891
13.886 131.52622 130.58606
13.888 140.85577 129.99045
13.89 114.94147 129.43842
13.892 142.57722 128.92675
13.894 125.06347 128.45284
13.896 119.42935 128.01475
13.898 124.73982 127.61123
13.9 118.39976 127.24162
13.902 132.88481 126.90587
13.904 129.24825 126.60451
13.906 108.25369 126.33852
13.908 131.54199 126.10936
13.91 138.83267 125.91912
13.912 111.86622 125.76966
13.914 135.05892 125.65135
13.916 135.39088 125.59226
13.918 121.63771 125.58333
13.92 140.39066 125.62843
13.922 132.45615 125.73197
13.924 112.84188 125.89834
13.926 119.76421 126.13284
13.928 132.32337 126.44102
13.93 119.88417 126.8289
13.932 113.26595 127.3029
13.934 154.31919 127.86986
13.936 115.19209 128.53689
13.938 114.22681 129.31146
13.94 130.20239 130.2019
13.942 132.35132 131.21467
13.944 124.085 132.35687
13.946 124.26066 133.63893
13.948 142.34287 135.06677
13.95 135.20525 136.64744
13.952 143.5171 138.38729
13.954 138.10701 140.29183
13.956 116.65396 142.36556
13.958 152.35206 144.61207
13.96 140.52478 147.03225
13.962 137.45284 149.62634
13.964 154.52766 152.39206
13.966 160.57515 155.32473
13.968 141.74938 158.41689
13.97 172.60276 161.65799
13.972 145.99191 165.03416
13.974 153.81286 168.52747
13.976 146.6743 172.11633
13.978 153.37281 175.7749
13.98 174.34597 179.47316
13.982 157.97203 183.1771
13.984 182.63698 186.84911
13.986 172.45285 190.44858
13.988 172.22488 193.93284
13.99 173.61668 197.25816
13.992 180.98636 200.38104
13.994 170.95842 203.2583
13.996 186.25004 205.85287
13.998 191.17673 208.12749
14 207.4777 210.05197
14.002 217.48547 211.59999
14.004 215.01257 212.75109
14.006 225.91381 213.49046
14.008 204.02387 213.80983
14.01 215.21113 213.70672
14.012 232.203 213.18549
14.014 209.94559 212.2576
14.016 228.21174 210.9419
14.018 228.16339 209.26467
14.02 234.7725 207.25927
14.022 227.84496 204.96539
14.024 214.60999 202.42792
14.026 181.87765 199.69541
14.028 215.79915 196.81854
14.03 214.09671 193.84812
14.032 194.50868 190.83464
14.034 186.05246 187.82575
14.036 182.57642 184.86565
14.038 172.00471 181.99433
14.04 181.17566 179.24711
14.042 168.11967 176.65431
14.044 164.32127 174.24118
14.046 201.72458 172.02795
14.048 173.30902 170.02995
14.05 163.8816 168.25778
14.052 161.77044 166.71753
14.054 156.4154 165.41094
14.056 178.22712 164.33565
14.058 167.66001 163.48535
14.06 133.1418 162.84993
14.062 163.33462 162.41566
14.064 135.20474 162.16518
14.066 155.58017 162.07769
14.068 163.66618 162.12912
14.07 127.1602 162.29226
14.072 159.37824 162.53704
14.074 135.28225 162.83091
14.076 135.88915 163.13942
14.078 168.21527 163.42705
14.08 140.53878 163.65828
14.082 136.91943 163.79883
14.084 150.12873 163.81725
14.086 144.67133 163.68636
14.088 150.87469 163.38471
14.09 149.9985 162.89768
14.092 143.18084 162.21819
14.094 140.45776 161.3468
14.096 146.07924 160.29123
14.098 143.64786 159.06539
14.1 145.60425 157.68805
14.102 130.41606 156.1813
14.104 126.04864 154.56907
14.106 129.33187 152.87578
14.108 123.63323 151.12531
14.11 140.30047 149.3402
14.112 131.43919 147.54116
14.114 149.63798 145.7468
14.116 127.26748 143.97388
14.118 132.95706 142.23592
14.12 140.2318 140.54554
14.122 128.35112 138.91294
14.124 136.40742 137.34656
14.126 129.22053 135.85319
14.128 126.23817 134.43814
14.13 127.78319 133.10534
14.132 116.1955 131.85749
14.134 126.08308 130.69618
14.136 118.94115 129.62203
14.138 125.84802 128.63484
14.14 115.4408 127.73365
14.142 126.7218 126.91702
14.144 132.15133 126.18276
14.146 130.05535 125.52861
14.148 118.50371 124.95197
14.15 123.54294 124.45012
14.152 110.33842 124.0203
14.154 140.58688 123.6598
14.156 125.33306 123.36606
14.158 108.27498 123.13726
14.16 118.77295 122.97059
14.162 112.65993 122.86389
14.164 125.08562 122.81607
14.166 134.55031 122.82588
14.168 121.77159 122.89243
14.17 104.96662 123.01511
14.172 132.58253 123.19502
14.174 114.90828 123.42929
14.176 118.5904 123.71947
14.178 105.27501 124.06589
14.18 128.39519 124.46901
14.182 132.30808 124.92937
14.184 132.01497 125.44762
14.186 134.93461 126.02356
14.188 121.38175 126.65879
14.19 129.60798 127.35306
14.192 117.02079 128.10646
14.194 134.43451 128.91879
14.196 131.94902 129.78951
14.198 119.23579 130.71766
14.2 116.15936 131.70203
14.202 146.15823 132.74008
14.204 144.60564 133.82933
14.206 130.50521 134.96631
14.208 141.56277 136.14684
14.21 137.02792 137.36561
14.212 132.7624 138.61653
14.214 148.08326 139.89323
14.216 161.69116 141.18778
14.218 156.42494 142.49145
14.22 129.43458 143.79664
14.222 146.98 145.09573
14.224 149.36857 146.38179
14.226 131.30652 147.64925
14.228 140.73977 148.89422
14.23 146.28876 150.11478
14.232 116.49369 151.31107
14.234 133.8336 152.48505
14.236 164.7301 153.63445
14.238 152.51652 154.77505
14.24 148.93868 155.90569
14.242 139.71851 157.0305
14.244 133.9731 158.15181
14.246 171.14329 159.27226
14.248 162.90274 160.3903
14.25 153.99085 161.50244
14.252 144.95336 162.60226
14.254 155.57888 163.6735
14.256 159.8095 164.7168
14.258 150.51088 165.70944
14.26 159.68494 166.63318
14.262 169.16195 167.46719
14.264 174.59992 168.18811
14.266 180.35911 168.77124
14.268 180.054 169.1969
14.27 182.09839 169.44669
14.272 168.50473 169.50688
14.274 167.31316 169.36776
14.276 172.40143 169.03294
14.278 182.55335 168.50704
14.28 169.73638 167.80376
14.282 156.66249 166.94286
14.284 188.00613 165.9487
14.286 176.21548 164.84873
14.288 143.21633 163.67222
14.29 178.21416 162.44302
14.292 202.20292 161.19815
14.294 165.92288 159.95926
14.296 168.65869 158.74995
14.298 166.24873 157.5911
14.3 162.84542 156.50073
14.302 140.50707 155.49394
14.304 170.0931 154.58282
14.306 149.29225 153.77726
14.308 148.95193 153.08347
14.31 171.63428 152.50907
14.312 153.92764 152.05107
14.314 134.29456 151.71153
14.316 136.42921 151.48853
14.318 136.09214 151.37835
14.32 142.79348 151.37713
14.322 152.57299 151.47619
14.324 148.199 151.66958
14.326 137.94359 151.94938
14.328 141.8114 152.30702
14.33 161.71903 152.73328
14.332 143.68041 153.21822
14.334 132.23944 153.7516
14.336 151.90807 154.32081
14.338 143.67343 154.91348
14.34 149.53644 155.516
14.342 153.59504 156.1138
14.344 141.0309 156.69172
14.346 151.32862 157.23446
14.348 155.81633 157.72721
14.35 160.4469 158.15638
14.352 156.06854 158.51039
14.354 150.66518 158.78056
14.356 156.12918 158.96166
14.358 165.16839 159.05241
14.36 157.09551 159.05548
14.362 148.79376 158.97726
14.364 146.01593 158.82714
14.366 157.67729 158.61668
14.368 145.72996 158.35858
14.37 155.4416 158.06561
14.372 151.83788 157.74975
14.374 157.23195 157.42147
14.376 153.23993 157.08919
14.378 147.19304 156.75913
14.38 139.81141 156.43062
14.382 154.84064 156.1148
14.384 163.43003 155.80727
14.386 134.77256 155.50712
14.388 137.66932 155.21256
14.39 145.05724 154.92169
14.392 153.39656 154.63266
14.394 147.39581 154.34413
14.396 148.03485 154.05416
14.398 152.13499 153.76156
14.4 143.93807 153.46475
14.402 146.80334 153.16098
14.404 153.85367 152.84686
14.406 150.87848 152.51658
14.408 136.8433 152.16541
14.41 131.0942 151.78495
14.412 135.26658 151.36667
14.414 142.71111 150.90174
14.416 143.58373 150.37744
14.418 132.63138 149.79538
14.42 142.33797 149.14619
14.422 131.51615 148.42752
14.424 149.23942 147.64017
14.426 142.69354 146.78808
14.428 133.13432 145.87818
14.43 135.01304 144.91882
14.432 121.78123 143.92329
14.434 148.08998 142.90313
14.436 147.46642 141.87056
14.438 136.48001 140.83841
14.44 146.8743 139.81861
14.442 119.06392 138.82219
14.444 106.99289 137.8591
14.446 134.85801 136.93797
14.448 138.27163 136.06638
14.45 131.90301 135.25074
14.452 125.13817 134.49787
14.454 134.8001 133.80915
14.456 132.04308 133.18951
14.458 135.84601 132.6416
14.46 123.28943 132.16735
14.462 138.00846 131.76808
14.464 117.96484 131.44463
14.466 121.96725 131.19744
14.468 123.92738 131.02672
14.47 135.32837 130.93257
14.472 128.14963 130.91514
14.474 128.61803 130.97467
14.476 131.92932 131.11162
14.478 146.65593 131.32667
14.48 134.23886 131.62069
14.482 142.07049 131.99467
14.484 142.95066 132.44966
14.486 139.51692 132.98658
14.488 136.90239 133.60613
14.49 137.10456 134.30861
14.492 158.49702 135.09381
14.494 129.70137 135.96089
14.496 148.79642 136.90819
14.498 128.02961 137.93315
14.5 130.68293 139.03218
14.502 147.08641 140.20055
14.504 153.41678 141.43232
14.506 135.00533 142.72027
14.508 148.63231 144.05603
14.51 137.17939 145.4301
14.512 155.75512 146.83222
14.514 156.3758 148.25161
14.516 152.69111 149.67754
14.518 156.13227 151.09973
14.52 158.74264 152.50894
14.522 140.98507 153.89726
14.524 169.45656 155.2584
14.526 157.13123 156.58761
14.528 164.68442 157.8814
14.53 159.08538 159.13705
14.532 157.98372 160.35197
14.534 207.93308 161.52195
14.536 176.59137 162.64407
14.538 165.49054 163.71094
14.54 170.35934 164.71366
14.542 149.36512 165.64126
14.544 178.88813 166.47942
14.546 172.2078 167.21411
14.548 165.21045 167.82677
14.55 175.23704 168.3019
14.552 163.92593 168.62407
14.554 168.04476 168.7802
14.556 162.10942 168.76067
14.558 157.4996 168.56027
14.56 171.25277 168.17872
14.562 151.95963 167.62091
14.564 161.50929 166.89664
14.566 168.87155 166.02011
14.568 151.08995 165.00908
14.57 156.13325 163.88394
14.572 164.03981 162.66669
14.574 165.73248 161.37993
14.576 159.02471 160.04601
14.578 169.87936 158.68619
14.58 159.89625 157.32005
14.582 155.36605 155.96503
14.584 155.40465 154.63621
14.586 174.04957 153.34558
14.588 170.59101 152.10278
14.59 136.75508 150.91454
14.592 151.78814 149.78513
14.594 157.26498 148.71542
14.596 134.36363 147.70467
14.598 158.51862 146.74961
14.6 119.5847 145.84515
14.602 139.28033 144.9844
14.604 157.8013 144.15955
14.606 139.59508 143.36208
14.608 140.4502 142.58335
14.61 126.66862 141.81501
14.612 141.47749 141.04974
14.614 147.88011 140.28114
14.616 128.37637 139.50423
14.618 109.43357 138.71544
14.62 140.8419 137.91257
14.622 128.78518 137.09411
14.624 123.3412 136.26133
14.626 140.1174 135.41479
14.628 147.34397 134.55641
14.63 138.83694 133.68875
14.632 133.11273 132.815
14.634 115.06422 131.93878
14.636 113.40802 131.06399
14.638 124.78739 130.19471
14.64 119.27333 129.335
14.642 134.62524 128.48879
14.644 137.01714 127.65973
14.646 134.28427 126.85099
14.648 139.2085 126.06577
14.65 114.70158 125.30782
14.652 134.57399 124.57629
14.654 110.28857 123.87424
14.656 114.57969 123.20293
14.658 129.50947 122.56326
14.66 106.8489 121.95586
14.662 121.51793 121.38106
14.664 131.12215 120.83896
14.666 118.88409 120.32942
14.668 143.90524 119.85211
14.67 107.42966 119.40654
14.672 129.67016 118.99201
14.674 110.97726 118.60767
14.676 92.13741 118.25256
14.678 125.66195 117.9256
14.68 124.40469 117.62582
14.682 120.57161 117.3516
14.684 124.72317 117.10071
14.686 114.13245 116.87455
14.688 121.22504 116.66988
14.69 132.40782 116.48578
14.692 118.77447 116.32217
14.694 124.39078 116.17546
14.696 105.16348 116.04562
14.698 129.56937 115.9315
14.7 109.86418 115.83149
14.702 119.67385 115.74555
14.704 131.36067 115.67218
14.706 108.51012 115.61042
14.708 113.50495 115.55712
14.71 100.48585 115.5159
14.712 110.88859 115.48368
14.714 119.75064 115.45966
14.716 118.57937 115.44307
14.718 115.40897 115.43314
14.72 125.6199 115.42912
14.722 113.45356 115.43027
14.724 120.96874 115.43581
14.726 116.88494 115.44502
14.728 108.97831 115.45711
14.73 110.64082 115.47136
14.732 119.42659 115.48701
14.734 125.18847 115.50337
14.736 120.7472 115.52039
14.738 98.66439 115.53634
14.74 119.29412 115.55138
14.742 119.3363 115.56526
14.744 98.06898 115.57786
14.746 108.54622 115.58929
14.748 117.51842 115.59982
14.75 101.73298 115.6099
14.752 122.16356 115.61644
14.754 116.43687 115.62762
14.756 112.512 115.64055
14.758 115.40313 115.65613
14.76 116.00656 115.67533
14.762 121.40794 115.69911
14.764 97.83422 115.72848
14.766 111.72386 115.76445
14.768 110.57251 115.80815
14.77 104.11129 115.86041
14.772 108.40067 115.92243
14.774 124.94809 115.99533
14.776 109.88939 116.08023
14.778 111.67549 116.17839
14.78 113.39279 116.29106
14.782 119.535 116.41961
14.784 112.27814 116.56541
14.786 117.00578 116.73009
14.788 114.97557 116.91521
14.79 107.46702 117.12247
14.792 120.4352 117.35371
14.794 112.92383 117.61042
14.796 114.96756 117.89557
14.798 114.14266 118.21089
14.8 105.99065 118.55866
14.802 113.3377 118.94126
14.804 112.11024 119.3611
14.806 102.03615 119.82059
14.808 110.88253 120.31771
14.81 115.3478 120.86335
14.812 111.68464 121.45511
14.814 119.82791 122.09464
14.816 120.26584 122.78375
14.818 100.74618 123.52213
14.82 120.49138 124.31054
14.822 118.31211 125.14858
14.824 112.31518 126.03514
14.826 126.84063 126.96833
14.828 127.92545 127.9454
14.83 109.33299 128.96267
14.832 120.21371 130.01545
14.834 132.00649 131.09505
14.836 116.95071 132.20028
14.838 126.97659 133.32002
14.84 123.77732 134.44469
14.842 118.13175 135.56336
14.844 143.10398 136.6637
14.846 123.77627 137.73207
14.848 139.91951 138.75375
14.85 150.31661 139.7129
14.852 150.64407 140.59344
14.854 136.95625 141.37928
14.856 132.74109 142.05506
14.858 122.16249 142.60696
14.86 146.22955 143.02343
14.862 140.86811 143.29589
14.864 138.77238 143.4193
14.866 137.31051 143.39249
14.868 148.47046 143.21818
14.87 145.67667 142.90233
14.872 140.21607 142.45565
14.874 149.80508 141.89011
14.876 121.63266 141.22018
14.878 131.22473 140.46172
14.88 144.38669 139.63148
14.882 135.89865 138.7465
14.884 141.38631 137.82192
14.886 129.64542 136.87422
14.888 139.66659 135.91824
14.89 139.43032 134.96775
14.892 126.01004 134.03543
14.894 122.63454 133.1328
14.896 122.60954 132.27029
14.898 145.73117 131.45725
14.9 123.4727 130.70203
14.902 114.95257 130.01208
14.904 129.73666 129.39399
14.906 119.33457 128.8535
14.908 117.32968 128.39564
14.91 112.85694 128.02473
14.912 123.61944 127.74441
14.914 123.06753 127.55849
14.916 105.4889 127.46801
14.918 129.24188 127.47516
14.92 124.44486 127.58138
14.922 118.20202 127.78732
14.924 146.99375 128.09309
14.926 130.33687 128.49825
14.928 124.57411 129.0017
14.93 127.42285 129.60188
14.932 135.21569 130.29733
14.934 128.68368 131.08376
14.936 141.65985 131.95844
14.938 124.80658 132.91722
14.94 135.67174 133.95505
14.942 128.99468 135.06614
14.944 135.60803 136.24368
14.946 124.36001 137.4798
14.948 127.25838 138.76537
14.95 119.05339 140.09011
14.952 150.6437 141.44215
14.954 141.30404 142.80813
14.956 132.55103 144.17186
14.958 130.38662 145.51769
14.96 153.82695 146.82991
14.962 153.88442 148.08779
14.964 167.57351 149.27079
14.966 142.84911 150.36046
14.968 155.93812 151.33699
14.97 160.17879 152.18287
14.972 137.29021 152.88323
14.974 163.48723 153.42663
14.976 137.87449 153.80595
14.978 141.50663 154.01865
14.98 164.3578 154.06689
14.982 159.12227 153.95716
14.984 160.95737 153.69969
14.986 137.74248 153.30743
14.988 156.96968 152.79534
14.99 169.92482 152.17935
14.992 153.57612 151.47564
14.994 166.16286 150.70014
14.996 153.58778 149.86818
14.998 142.51093 148.99437
15 164.53034 148.09264
15.002 158.29409 147.17248
15.004 153.05832 146.25452
15.006 142.58482 145.34749
15.008 163.04548 144.4637
15.01 151.3696 143.61503
15.012 135.44691 142.81289
15.014 151.00024 142.06819
15.016 156.92293 141.39094
15.018 133.85632 140.79014
15.02 159.72598 140.27362
15.022 153.9626 139.84785
15.024 144.59985 139.51698
15.026 115.28617 139.28643
15.028 136.76932 139.15734
15.03 131.62852 139.13022
15.032 138.31246 139.20408
15.034 146.64533 139.37645
15.036 163.97657 139.6434
15.038 156.12936 139.99965
15.04 136.51554 140.43857
15.042 156.76559 140.95235
15.044 130.31427 141.53205
15.046 153.90551 142.16802
15.048 141.51763 142.8489
15.05 125.94995 143.56342
15.052 145.44575 144.29942
15.054 141.79615 145.04423
15.056 145.33829 145.78481
15.058 126.01825 146.50786
15.06 130.64057 147.19989
15.062 162.32143 147.84742
15.064 146.0041 148.43775
15.066 153.78381 148.95631
15.068 165.58197 149.39123
15.07 136.99189 149.73071
15.072 147.63119 149.96419
15.074 157.3045 150.08269
15.076 146.52175 150.07927
15.078 142.44638 149.94935
15.08 144.25032 149.69099
15.082 151.24254 149.30494
15.084 156.06558 148.79457
15.086 163.73628 148.16448
15.088 159.32281 147.42494
15.09 149.77955 146.58436
15.092 137.93015 145.65373
15.094 161.65645 144.64502
15.096 163.50908 143.57091
15.098 179.58841 142.4445
15.1 165.0836 141.279
15.102 165.29302 140.08753
15.104 141.82541 138.88281
15.106 158.63599 137.67699
15.108 130.99755 136.48145
15.11 144.7633 135.30667
15.112 130.92742 134.16195
15.114 139.11761 133.05561
15.116 143.21726 131.99489
15.118 146.17914 130.98566
15.12 139.96427 130.03292
15.122 153.08685 129.14056
15.124 146.9909 128.31147
15.126 125.2045 127.54765
15.128 133.29105 126.85022
15.13 121.7552 126.21949
15.132 127.25091 125.65506
15.134 142.73395 125.15586
15.136 145.28852 124.7206
15.138 133.3674 124.34619
15.14 118.82084 124.03026
15.142 115.97687 123.76956
15.144 127.53226 123.56043
15.146 137.81579 123.3988
15.148 131.39966 123.28029
15.15 119.0759 123.20022
15.152 106.19232 123.15363
15.154 119.35952 123.13536
15.156 111.1689 123.14005
15.158 117.65974 123.16221
15.16 125.08284 123.19627
15.162 123.05742 123.23665
15.164 112.59421 123.27785
15.166 126.70451 123.3146
15.168 116.53456 123.34193
15.17 118.67724 123.35541
15.172 134.02856 123.35122
15.174 120.24397 123.32634
15.176 110.52426 123.27861
15.178 119.14016 123.2048
15.18 129.57007 123.10887
15.182 110.57388 122.98882
15.184 124.75815 122.84624
15.186 132.23084 122.68305
15.188 116.49156 122.5016
15.19 125.18767 122.3045
15.192 133.65307 122.09442
15.194 119.09189 121.87401
15.196 122.43811 121.64567
15.198 111.47613 121.41155
15.2 115.15611 121.17346
15.202 125.95664 120.93292
15.204 108.38917 120.69081
15.206 113.86911 120.44799
15.208 106.91663 120.20493
15.21 111.04882 119.9619
15.212 121.31831 119.71909
15.214 128.99058 119.47663
15.216 120.38751 119.23473
15.218 132.2575 118.99374
15.22 121.23627 118.75415
15.222 119.91788 118.51667
15.224 121.26205 118.28217
15.226 105.77773 118.05168
15.228 109.2831 117.82635
15.23 124.49626 117.60736
15.232 106.15909 117.39699
15.234 119.1174 117.19415
15.236 120.2157 117.00101
15.238 114.40027 116.81848
15.24 116.46258 116.64739
15.242 100.46469 116.48842
15.244 129.9845 116.34213
15.246 121.52077 116.20899
15.248 114.00191 116.08936
15.25 118.29753 115.98349
15.252 115.61258 115.89159
15.254 137.18351 115.81379
15.256 107.39282 115.75015
15.258 122.70431 115.70071
15.26 125.91308 115.66545
15.262 111.49795 115.64434
15.264 131.54883 115.63728
15.266 114.49672 115.6442
15.268 127.16557 115.66506
15.27 106.12863 115.69955
15.272 120.06726 115.74813
15.274 116.42153 115.80965
15.276 109.77832 115.88445
15.278 107.64844 115.97238
15.28 112.64694 116.07328
15.282 117.85294 116.18699
15.284 109.88346 116.31348
15.286 101.01217 116.45238
15.288 112.79047 116.60367
15.29 130.62613 116.76724
15.292 135.50129 116.94303
15.294 126.85489 117.13103
15.296 115.22005 117.3313
15.298 112.63736 117.54403
15.3 119.32946 117.76955
15.302 126.44158 118.00837
15.304 123.32757 118.26123
15.306 126.4738 118.5291
15.308 112.41044 118.81321
15.31 132.43272 119.11502
15.312 129.94438 119.43626
15.314 128.40829 119.77882
15.316 117.56371 120.14478
15.318 115.03919 120.53635
15.32 115.71541 120.9555
15.322 129.92463 121.40437
15.324 110.73174 121.88493
15.326 119.55765 122.39989
15.328 118.74296 122.94875
15.33 123.38855 123.53365
15.332 126.41367 124.15535
15.334 99.65192 124.81423
15.336 120.59964 125.51017
15.338 139.4404 126.24265
15.34 118.94052 127.01062
15.342 126.25408 127.81258
15.344 133.40308 128.64653
15.346 126.71117 129.51005
15.348 126.87363 130.40027
15.35 130.16971 131.31055
15.352 130.96996 132.24423
15.354 120.54772 133.19404
15.356 150.57421 134.1559
15.358 130.46557 135.12429
15.36 158.68447 136.09715
15.362 153.57251 137.06853
15.364 141.21961 138.03491
15.366 132.09993 138.98873
15.368 153.11915 139.92586
15.37 151.54493 140.84283
15.372 130.97801 141.73538
15.374 146.71047 142.60009
15.376 143.298 143.43475
15.378 143.38718 144.23837
15.38 138.49382 145.01123
15.382 130.53804 145.75486
15.384 145.19009 146.47188
15.386 143.22057 147.16034
15.388 141.06666 147.83498
15.39 146.50961 148.49426
15.392 144.13534 149.14265
15.394 161.43321 149.78329
15.396 140.16766 150.41878
15.398 159.10526 151.05048
15.4 150.1575 151.67842
15.402 144.49968 152.30178
15.404 143.8022 152.91594
15.406 144.11111 153.51621
15.408 140.36918 154.09528
15.41 156.07942 154.64387
15.412 134.30744 155.15093
15.414 160.08535 155.59816
15.416 143.58733 155.98268
15.418 161.46029 156.28467
15.42 158.6181 156.48983
15.422 141.82642 156.58478
15.424 132.8543 156.55779
15.426 157.50006 156.39946
15.428 133.28426 156.10332
15.43 169.93013 155.66618
15.432 141.3357 155.08828
15.434 132.58684 154.37384
15.436 156.40216 153.52842
15.438 151.75721 152.56211
15.44 143.52002 151.48661
15.442 152.06425 150.31537
15.444 137.53469 149.06303
15.446 159.14318 147.74428
15.448 139.86493 146.37545
15.45 144.03191 144.97119
15.452 134.39445 143.5459
15.454 132.13179 142.11308
15.456 148.17945 140.68511
15.458 145.8445 139.2731
15.46 150.36666 137.88684
15.462 159.14494 136.53478
15.464 128.30863 135.22416
15.466 138.03577 133.96066
15.468 134.97303 132.74903
15.47 124.13487 131.5928
15.472 123.93309 130.49446
15.474 142.61211 129.45555
15.476 136.48743 128.47671
15.478 130.24889 127.55804
15.48 126.99631 126.69844
15.482 133.07294 125.89684
15.484 111.99973 125.1515
15.486 143.70185 124.46047
15.488 147.2497 123.82158
15.49 125.60066 123.23259
15.492 148.12533 122.69125
15.494 127.84744 122.1954
15.496 132.28478 121.72478
15.498 131.44956 121.31377
15.5 128.56543 120.94274
15.502 131.86445 120.60898
15.504 130.41603 120.3112
15.506 159.11492 120.04765
15.508 127.49085 119.8166
15.51 101.48293 119.61632
15.512 143.06981 119.44505
15.514 132.86522 119.30101
15.516 119.00216 119.17958
15.518 124.48562 119.08464
15.52 131.26269 119.01159
15.522 119.74702 118.95867
15.524 138.21606 118.92418
15.526 128.38305 118.90648
15.528 132.55676 118.90395
15.53 133.3227 118.91255
15.532 112.33036 118.93572
15.534 128.80637 118.96943
15.536 114.62453 119.01224
15.538 137.23888 119.06234
15.54 108.62629 119.11829
15.542 120.77311 119.17811
15.544 111.32598 119.23999
15.546 129.00614 119.30232
15.548 146.44647 119.36317
15.55 124.92539 119.42084
15.552 121.72949 119.47376
15.554 137.07822 119.52125
15.556 126.68168 119.56125
15.558 122.90652 119.59389
15.56 119.29613 119.61924
15.562 114.52447 119.63788
15.564 123.09779 119.65092
15.566 111.81292 119.65992
15.568 144.23653 119.66683
15.57 133.3755 119.67385
15.572 127.21758 119.68336
15.574 140.55173 119.69778
15.576 117.4077 119.71948
15.578 110.44289 119.75072
15.58 129.98066 119.79354
15.582 118.69274 119.84974
15.584 132.63787 119.92085
15.586 135.67291 120.00809
15.588 127.9026 120.11236
15.59 119.0302 120.23422
15.592 136.67464 120.37386
15.594 117.11821 120.53114
15.596 126.89079 120.70271
15.598 129.57622 120.89329
15.6 144.5493 121.09858
15.602 113.79551 121.31694
15.604 132.3826 121.54616
15.606 145.76589 121.78389
15.608 129.7585 122.02728
15.61 107.14297 122.27333
15.612 139.87303 122.51887
15.614 143.43949 122.7608
15.616 159.05166 122.99582
15.618 141.60941 123.22104
15.62 111.07261 123.43371
15.622 133.80101 123.63138
15.624 119.14422 123.81187
15.626 118.7449 123.97335
15.628 150.11493 124.1139
15.63 116.21274 124.23204
15.632 129.09279 124.32676
15.634 120.89537 124.3956
15.636 121.63182 124.43768
15.638 133.29999 124.45172
15.64 127.32533 124.43671
15.642 133.52046 124.39238
15.644 135.10618 124.31767
15.646 139.79101 124.21343
15.648 132.79554 124.08083
15.65 120.20113 123.92169
15.652 106.45341 123.73864
15.654 142.36744 123.53489
15.656 128.71477 123.31416
15.658 127.69597 123.0805
15.66 99.87535 122.83813
15.662 120.20435 122.59033
15.664 133.96737 122.34311
15.666 124.522 122.09964
15.668 129.38981 121.86305
15.67 126.60196 121.63684
15.672 146.1173 121.42442
15.674 120.62713 121.22775
15.676 105.8884 121.04908
15.678 137.38217 120.89069
15.68 114.73187 120.75434
15.682 119.38931 120.64153
15.684 133.71855 120.55354
15.686 115.4072 120.49144
15.688 125.7227 120.45607
15.69 121.60365 120.44809
15.692 114.56074 120.46798
15.694 141.16909 120.51603
15.696 127.43433 120.59234
15.698 121.19949 120.6969
15.7 114.73331 120.82955
15.702 113.17004 120.99002
15.704 137.48293 121.17794
15.706 125.51014 121.39292
15.708 103.30699 121.63452
15.71 121.97015 121.90237
15.712 125.4579 122.19615
15.714 146.87194 122.5157
15.716 133.9938 122.86108
15.718 119.31097 123.23264
15.72 124.27984 123.63106
15.722 123.26696 124.05741
15.724 125.83769 124.51318
15.726 122.65377 125.00021
15.728 128.34268 125.52071
15.73 127.24766 126.07709
15.732 115.54806 126.67187
15.734 134.56543 127.30752
15.736 138.25605 127.9863
15.738 108.43546 128.71011
15.74 125.76624 129.48032
15.742 127.43381 130.29765
15.744 126.74539 131.16208
15.746 135.50938 132.07268
15.748 150.88751 133.02759
15.75 118.6816 134.02394
15.752 153.38079 135.05776
15.754 132.97219 136.12362
15.756 134.55012 137.21578
15.758 134.75132 138.32636
15.76 151.11246 139.44648
15.762 143.10825 140.56593
15.764 147.81231 141.67354
15.766 151.345 142.75573
15.768 150.46662 143.79885
15.77 142.28446 144.78783
15.772 157.90713 145.70687
15.774 149.59459 146.53985
15.776 145.14172 147.2708
15.778 168.10541 147.88471
15.78 150.74263 148.36794
15.782 143.42051 148.70943
15.784 190.98675 148.90113
15.786 155.52888 148.93864
15.788 152.02299 148.82158
15.79 149.19341 148.55362
15.792 168.2015 148.14232
15.794 160.32816 147.59864
15.796 168.51014 146.93626
15.798 162.01396 146.17081
15.8 163.18534 145.31912
15.802 146.91952 144.39843
15.804 172.38039 143.4258
15.806 153.19445 142.41764
15.808 145.39909 141.38932
15.81 161.69491 140.35495
15.812 138.70593 139.3273
15.814 157.17964 138.31773
15.816 142.27378 137.33619
15.818 136.14 136.3913
15.82 151.69686 135.49038
15.822 133.00477 134.63957
15.824 150.32722 133.84385
15.826 141.60617 133.10712
15.828 120.15687 132.43232
15.83 141.32323 131.82141
15.832 143.82918 131.2755
15.834 120.795 130.79366
15.836 129.01292 130.37774
15.838 125.19458 130.02533
15.84 148.70816 129.73454
15.842 140.59121 129.50293
15.844 117.08903 129.32754
15.846 155.78418 129.20509
15.848 147.6244 129.13206
15.85 124.96199 129.10546
15.852 150.83007 129.12041
15.854 127.43647 129.17417
15.856 115.36259 129.26361
15.858 146.8286 129.38596
15.86 135.05625 129.53879
15.862 130.97154 129.72006
15.864 134.64578 129.928
15.866 135.53947 130.16105
15.868 128.26709 130.4177
15.87 128.55029 130.69642
15.872 155.5436 130.9955
15.874 118.45611 131.31296
15.876 142.88425 131.64644
15.878 133.10069 131.99313
15.88 129.41766 132.34971
15.882 127.49165 132.71235
15.884 142.58046 133.07663
15.886 123.86965 133.43753
15.888 129.49829 133.7898
15.89 132.71054 134.12663
15.892 130.59425 134.44161
15.894 136.77113 134.72759
15.896 110.85099 134.97685
15.898 130.84137 135.18169
15.9 136.49436 135.33442
15.902 126.91437 135.42771
15.904 134.23919 135.45506
15.906 125.45928 135.41101
15.908 150.07549 135.29192
15.91 137.47848 135.09573
15.912 134.3026 134.82252
15.914 149.75806 134.47442
15.916 137.43112 134.05558
15.918 137.87822 133.57186
15.92 129.49742 133.03052
15.922 121.49284 132.43987
15.924 135.71177 131.80882
15.926 121.28744 131.14642
15.928 144.57865 130.46019
15.93 145.03494 129.76189
15.932 125.96663 129.05812
15.934 153.75112 128.3564
15.936 140.7812 127.66352
15.938 140.16377 126.98558
15.94 141.7866 126.32792
15.942 140.87753 125.69556
15.944 123.87953 125.09178
15.946 117.31781 124.52031
15.948 132.08189 123.98389
15.95 132.15356 123.4857
15.952 124.72347 123.02541
15.954 128.17047 122.60513
15.956 139.28474 122.22552
15.958 120.04384 121.88676
15.96 131.38508 121.58862
15.962 113.08227 121.33093
15.964 136.75108 121.11181
15.966 128.60872 120.93042
15.968 147.48538 120.78447
15.97 134.49055 120.67351
15.972 123.22929 120.59486
15.974 126.57257 120.54624
15.976 140.59752 120.52521
15.978 119.54504 120.53015
15.98 119.9933 120.55637
15.982 117.60509 120.60254
15.984 127.92367 120.66444
15.986 135.50522 120.73962
15.988 133.35229 120.8248
15.99 124.42385 120.91652
15.992 131.89023 121.01156
15.994 115.68409 121.10679
15.996 120.76641 121.19846
15.998 147.97594 121.28357
16 128.29016 121.35908
16.002 138.07966 121.4222
16.004 117.27714 121.47051
16.006 120.44762 121.50202
16.008 127.99259 121.51379
16.01 100.72923 121.50822
16.012 136.68008 121.48411
16.014 134.23659 121.4416
16.016 129.40836 121.38252
16.018 134.20355 121.30914
16.02 141.38932 121.22395
16.022 131.16539 121.13021
16.024 141.35001 121.0313
16.026 120.68716 120.93069
16.028 118.04059 120.82951
16.03 124.21538 120.73625
16.032 131.26097 120.65047
16.034 135.72691 120.57544
16.036 128.18371 120.51349
16.038 128.16284 120.46654
16.04 124.09532 120.43606
16.042 124.64168 120.42313
16.044 112.26284 120.42833
16.046 131.19991 120.45183
16.048 125.45036 120.49334
16.05 120.63543 120.55211
16.052 121.5729 120.62693
16.054 119.14841 120.71614
16.056 118.13866 120.81763
16.058 128.68343 120.92882
16.06 115.0227 121.04672
16.062 106.91921 121.16793
16.064 122.98793 121.28872
16.066 125.76625 121.40508
16.068 132.93055 121.51284
16.07 124.92435 121.60777
16.072 111.40111 121.68572
16.074 113.71438 121.74284
16.076 103.90956 121.77564
16.078 130.21989 121.7812
16.08 126.70831 121.75724
16.082 117.45664 121.7022
16.084 143.00123 121.61507
16.086 120.64522 121.49664
16.088 126.96743 121.34673
16.09 137.32302 121.16694
16.092 135.48319 120.95911
16.094 122.62643 120.72553
16.096 126.54827 120.4688
16.098 125.29581 120.19177
16.1 136.82863 119.89731
16.102 129.45109 119.58861
16.104 135.27231 119.26854
16.106 119.78932 118.93998
16.108 109.96036 118.60564
16.11 125.79804 118.26808
16.112 109.77979 117.92964
16.114 120.26796 117.59249
16.116 125.73295 117.25905
16.118 123.82496 116.93018
16.12 106.2437 116.60785
16.122 120.25595 116.29352
16.124 124.99587 115.98838
16.126 112.22445 115.69351
16.128 127.8075 115.4098
16.13 121.69926 115.13795
16.132 123.03977 114.87869
16.134 128.89975 114.63214
16.136 122.60464 114.39872
16.138 114.93155 114.17855
16.14 129.89016 113.97164
16.142 120.01968 113.7779
16.144 109.36535 113.59711
16.146 123.04556 113.42902
16.148 123.93454 113.2733
16.15 111.96017 113.12949
16.152 108.80534 112.99719
16.154 119.07394 112.87594
16.156 125.42243 112.76525
16.158 113.98835 112.66463
16.16 131.5076 112.57359
16.162 124.88909 112.49164
16.164 117.55922 112.41828
16.166 116.48049 112.35304
16.168 118.05406 112.29545
16.17 139.16096 112.24508
16.172 119.5533 112.20149
16.174 108.49386 112.16427
16.176 114.21433 112.13398
16.178 114.52122 112.10833
16.18 112.93624 112.08792
16.182 115.7147 112.07247
16.184 123.13271 112.06155
16.186 134.13821 112.05493
16.188 116.80778 112.05312
16.19 121.6544 112.05422
16.192 105.03603 112.0588
16.194 119.32729 112.0666
16.196 119.67858 112.07739
16.198 102.97567 112.09095
16.2 121.20293 112.10717
16.202 120.79851 112.12405
16.204 132.08508 112.14484
16.206 126.48312 112.16776
16.208 111.18964 112.19275
16.21 122.57882 112.21978
16.212 115.0521 112.24577
16.214 109.72648 112.27709
16.216 139.83033 112.31075
16.218 129.28277 112.34696
16.22 115.81228 112.38599
16.222 117.02226 112.42811
16.224 122.423 112.47382
16.226 113.70171 112.52309
16.228 111.8334 112.57241
16.23 121.40837 112.63011
16.232 111.09809 112.69246
16.234 128.23126 112.75985
16.236 141.4929 112.83224
16.238 95.8866 112.9084
16.24 122.57524 112.99152
16.242 120.68646 113.08015
16.244 114.7632 113.17431
16.246 124.73053 113.27388
16.248 119.54118 113.37893
16.25 120.96082 113.4892
16.252 122.25818 113.60447
16.254 126.45804 113.72441
16.256 123.02216 113.84864
16.258 138.93271 113.97672
16.26 117.93356 114.10813
16.262 119.89846 114.24232
16.264 121.78886 114.37872
16.266 116.42155 114.51677
16.268 115.8802 114.65595
16.27 100.55004 114.79612
16.272 123.65862 114.93641
16.274 137.74722 115.07695
16.276 114.1354 115.21777
16.278 119.822 115.35907
16.28 108.41718 115.50123
16.282 98.34059 115.64477
16.284 122.48528 115.79033
16.286 120.84882 115.93858
16.288 130.33634 116.09022
16.29 120.37575 116.2472
16.292 139.21072 116.40736
16.294 122.70869 116.57239
16.296 129.32845 116.74244
16.298 116.32039 116.91745
16.3 113.92738 117.09709
16.302 115.20415 117.28081
16.304 128.60269 117.46775
16.306 129.33683 117.65684
16.308 118.44338 117.84673
16.31 115.10281 118.0349
16.312 128.94902 118.22152
16.314 121.54612 118.4037
16.316 130.79539 118.57618
16.318 129.44106 118.74316
16.32 123.31759 118.89925
16.322 119.64541 119.04221
16.324 119.74757 119.16988
16.326 128.50093 119.28017
16.328 126.94013 119.37119
16.33 117.56119 119.44127
16.332 122.83752 119.48903
16.334 120.22661 119.51349
16.336 128.72464 119.51406
16.338 116.60728 119.49064
16.34 129.03978 119.4436
16.342 120.99249 119.37376
16.344 124.66298 119.28237
16.346 119.45745 119.17105
16.348 121.05528 119.04168
16.35 124.19472 118.89632
16.352 129.24513 118.73709
16.354 120.14371 118.56612
16.356 117.93862 118.38542
16.358 113.51823 118.19688
16.36 105.84694 118.0022
16.362 134.61247 117.80284
16.364 115.51693 117.60009
16.366 129.28199 117.39515
16.368 133.28968 117.18874
16.37 118.28649 116.98175
16.372 123.58824 116.77487
16.374 117.35343 116.56874
16.376 124.71797 116.36398
16.378 139.00227 116.1612
16.38 118.13545 115.96103
16.382 111.93849 115.76416
16.384 130.5758 115.57131
16.386 127.10796 115.38338
16.388 116.90535 115.20085
16.39 104.67742 115.02467
16.392 130.78807 114.85562
16.394 120.71635 114.69445
16.396 132.64051 114.54188
16.398 122.43525 114.39865
16.4 116.77105 114.26518
16.402 120.24773 114.14368
16.404 113.40801 114.03146
16.406 113.76154 113.93053
16.408 129.66585 113.84125
16.41 117.94026 113.76409
16.412 118.72464 113.69908
16.414 126.01431 113.64662
16.416 109.68889 113.60696
16.418 130.20461 113.58032
16.42 119.38941 113.56694
16.422 127.91947 113.56701
16.424 124.59782 113.58077
16.426 116.32464 113.60837
16.428 121.96136 113.65002
16.43 122.81642 113.70594
16.432 106.78378 113.77632
16.434 110.6644 113.86134
16.436 132.15904 113.9612
16.438 101.49458 114.07608
16.44 131.16943 114.20613
16.442 128.41796 114.35158
16.444 132.8742 114.51242
16.446 136.25339 114.68874
16.448 144.56333 114.88058
16.45 120.21907 115.08792
16.452 121.04049 115.31144
16.454 127.59347 115.5493
16.456 115.92772 115.80203
16.458 111.78107 116.06919
16.46 108.80725 116.35025
16.462 119.05398 116.64453
16.464 107.79181 116.95119
16.466 124.57149 117.26903
16.468 132.65498 117.59739
16.47 123.14837 117.9355
16.472 136.5389 118.28053
16.474 123.41613 118.63159
16.476 130.31814 118.98591
16.478 135.7872 119.34465
16.48 127.09781 119.70472
16.482 138.50274 120.06444
16.484 122.90978 120.42217
16.486 131.32384 120.7763
16.488 135.27627 121.12519
16.49 123.26842 121.46726
16.492 140.99393 121.80084
16.494 121.44554 122.12418
16.496 122.80781 122.4358
16.498 116.24628 122.73349
16.5 123.11783 123.01537
16.502 124.52233 123.27932
16.504 121.71078 123.52311
16.506 125.9433 123.7444
16.508 127.85987 123.94084
16.51 125.13417 124.11048
16.512 130.92661 124.25042
16.514 134.84773 124.35906
16.516 136.02572 124.43478
16.518 139.23785 124.47633
16.52 121.74661 124.48295
16.522 126.979 124.45432
16.524 117.90408 124.39059
16.526 126.8736 124.28798
16.528 144.41855 124.15619
16.53 139.68833 123.99207
16.532 116.78021 123.79711
16.534 126.26541 123.573
16.536 135.2336 123.32157
16.538 125.44601 123.04522
16.54 121.87856 122.74522
16.542 125.16639 122.42425
16.544 128.31881 122.08468
16.546 118.92564 121.72894
16.548 146.85828 121.35974
16.55 132.96832 120.97968
16.552 115.06697 120.59143
16.554 122.31128 120.19765
16.556 147.89121 119.80094
16.558 128.89771 119.40383
16.56 133.54237 119.00951
16.562 113.65506 118.61859
16.564 126.43263 118.23429
16.566 115.15259 117.85773
16.568 104.62851 117.49093
16.57 118.07834 117.1374
16.572 121.50596 116.79415
16.574 114.65772 116.46438
16.576 120.27665 116.14885
16.578 138.28733 115.84816
16.58 120.33929 115.56274
16.582 119.98751 115.29288
16.584 117.25186 115.03804
16.586 117.92246 114.79954
16.588 129.81854 114.57656
16.59 128.41801 114.36889
16.592 124.45138 114.17624
16.594 125.17569 113.99823
16.596 122.81292 113.83442
16.598 115.96323 113.68434
16.6 133.04615 113.54756
16.602 114.3996 113.42338
16.604 135.20468 113.31122
16.606 133.64215 113.21078
16.608 116.00735 113.12139
16.61 125.73184 113.04253
16.612 104.88063 112.9736
16.614 120.12914 112.91424
16.616 117.62419 112.8638
16.618 103.04626 112.82206
16.62 130.42285 112.78601
16.622 114.17859 112.76024
16.624 122.80991 112.74192
16.626 119.41165 112.73074
16.628 105.51703 112.72642
16.63 126.44033 112.72918
16.632 110.08504 112.73794
16.634 132.84261 112.75301
16.636 134.01256 112.77424
16.638 104.7214 112.80165
16.64 115.86506 112.83504
16.642 116.79392 112.87447
16.644 116.2053 112.91998
16.646 122.14903 112.97162
16.648 119.23826 113.03043
16.65 123.35756 113.09466
16.652 130.2075 113.16538
16.654 117.76216 113.24299
16.656 107.62942 113.32727
16.658 121.05948 113.41864
16.66 105.38835 113.51608
16.662 127.34325 113.6233
16.664 120.14426 113.73968
16.666 120.80106 113.86205
16.668 108.58238 113.9929
16.67 125.84024 114.13278
16.672 121.27258 114.28159
16.674 120.42759 114.43991
16.676 126.71858 114.60814
16.678 119.57449 114.78688
16.68 120.96844 114.97618
16.682 128.84255 115.1767
16.684 120.83703 115.38894
16.686 122.5528 115.61342
16.688 125.93485 115.85067
16.69 119.4994 116.1019
16.692 131.92928 116.36633
16.694 112.54986 116.643
16.696 112.97157 116.93672
16.698 110.08167 117.24585
16.7 112.1647 117.57071
16.702 105.2672 117.9117
16.704 131.82796 118.26909
16.706 122.49267 118.64308
16.708 108.02443 119.0338
16.71 101.9432 119.44131
16.712 145.29199 119.86563
16.714 130.79178 120.30676
16.716 122.04994 120.76471
16.718 116.34288 121.23994
16.72 139.95569 121.73182
16.722 124.65699 122.24102
16.724 142.77435 122.76799
16.726 123.74085 123.31329
16.728 135.93828 123.87825
16.73 120.7826 124.46246
16.732 140.28641 125.06738
16.734 141.93905 125.69381
16.736 136.19668 126.34242
16.738 132.20301 127.0137
16.74 127.07426 127.70797
16.742 130.10184 128.4247
16.744 125.51739 129.16342
16.746 138.43266 129.92299
16.748 150.7397 130.70174
16.75 164.72544 131.49746
16.752 123.67326 132.30733
16.754 130.3595 133.12769
16.756 128.78382 133.95518
16.758 137.3575 134.78503
16.76 162.20671 135.61227
16.762 137.38324 136.43152
16.764 124.65167 137.23708
16.766 134.67096 138.02303
16.768 131.73653 138.78341
16.77 145.61811 139.51235
16.772 155.38062 140.20477
16.774 138.94666 140.85437
16.776 167.58612 141.45706
16.778 138.92917 142.00892
16.78 146.14136 142.50687
16.782 153.41864 142.94869
16.784 148.51615 143.33329
16.786 140.83047 143.66064
16.788 156.21065 143.93188
16.79 152.14783 144.14932
16.792 172.45488 144.31638
16.794 136.68128 144.43783
16.796 152.09454 144.51848
16.798 153.37353 144.56472
16.8 134.09201 144.58313
16.802 152.43936 144.58058
16.804 142.45355 144.56385
16.806 143.54066 144.53962
16.808 158.47084 144.51408
16.81 150.45633 144.49126
16.812 161.08865 144.4794
16.814 151.13782 144.4811
16.816 143.89288 144.49984
16.818 166.33006 144.53832
16.82 140.77637 144.59856
16.822 153.64594 144.68192
16.824 164.30163 144.78923
16.826 147.00818 144.92092
16.828 151.10918 145.07714
16.83 142.1135 145.25796
16.832 153.34876 145.46352
16.834 152.20679 145.69419
16.836 146.95999 145.95072
16.838 155.46475 146.23437
16.84 141.82399 146.54803
16.842 171.73417 146.89354
16.844 140.63479 147.27139
16.846 133.09453 147.68694
16.848 149.57192 148.14342
16.85 145.12841 148.64132
16.852 163.02072 149.18982
16.854 163.02403 149.78893
16.856 152.72642 150.44025
16.858 153.26791 151.14525
16.86 153.73048 151.90407
16.862 159.53457 152.71456
16.864 152.72153 153.57674
16.866 143.335 154.48601
16.868 158.73056 155.43688
16.87 153.01497 156.42317
16.872 156.86318 157.43662
16.874 156.17485 158.46797
16.876 136.95505 159.50654
16.878 169.14222 160.54048
16.88 169.6079 161.5571
16.882 164.67725 162.54315
16.884 162.99573 163.48532
16.886 147.94387 164.37071
16.888 175.48121 165.18751
16.89 148.39634 165.92552
16.892 167.19123 166.57672
16.894 162.22897 167.1358
16.896 141.79262 167.60037
16.898 152.94351 167.97112
16.9 164.87818 168.25173
16.902 158.36366 168.44853
16.904 173.12973 168.57001
16.906 162.22565 168.62631
16.908 169.59932 168.62848
16.91 158.09326 168.58795
16.912 150.14102 168.51458
16.914 175.56059 168.42124
16.916 173.73136 168.31599
16.918 149.73081 168.20674
16.92 156.82489 168.0998
16.922 158.94744 167.99982
16.924 179.722 167.90971
16.926 176.66789 167.83057
16.928 159.76946 167.7618
16.93 165.13934 167.70096
16.932 144.27339 167.64346
16.934 166.65382 167.5847
16.936 170.34135 167.51695
16.938 151.96972 167.4317
16.94 161.43684 167.3194
16.942 171.97779 167.16978
16.944 153.9164 166.97228
16.946 177.03787 166.71647
16.948 181.84167 166.39256
16.95 169.67367 165.99182
16.952 194.14029 165.50703
16.954 171.35092 164.93278
16.956 154.83227 164.26566
16.958 190.43219 163.50441
16.96 173.1304 162.64985
16.962 150.04728 161.70479
16.964 186.06416 160.67375
16.966 169.32542 159.56349
16.968 146.89611 158.38023
16.97 135.4679 157.13281
16.972 166.95424 155.83023
16.974 167.71193 154.48195
16.976 157.2063 153.09767
16.978 166.50859 151.68723
16.98 191.55512 150.26018
16.982 155.56924 148.82614
16.984 155.9461 147.39435
16.986 167.17834 145.9742
16.988 147.90394 144.57315
16.99 166.23877 143.20061
16.992 160.22082 141.8619
16.994 155.99426 140.56469
16.996 160.68234 139.31497
16.998 147.6088 138.118
17 139.76799 136.97827
17.002 153.45085 135.89957
17.004 143.65932 134.88493
17.006 163.38664 133.93669
17.008 136.57485 133.05648
17.01 152.80938 132.24531
17.012 156.88532 131.50372
17.014 142.63804 130.83121
17.016 141.95273 130.22721
17.018 158.19054 129.69106
17.02 127.19399 129.21996
17.022 136.14079 128.81237
17.024 120.33949 128.46577
17.026 132.35547 128.1783
17.028 129.63454 127.9448
17.03 147.36978 127.7628
17.032 134.80319 127.6287
17.034 143.10585 127.53839
17.036 146.85911 127.48793
17.038 128.12615 127.47321
17.04 138.0494 127.49008
17.042 138.09195 127.53448
17.044 148.4139 127.60307
17.046 150.43619 127.69093
17.048 122.92331 127.79521
17.05 129.07391 127.91285
17.052 137.98022 128.04119
17.054 125.27968 128.17803
17.056 144.40813 128.32161
17.058 137.37838 128.47073
17.06 130.44922 128.62455
17.062 133.47793 128.78277
17.064 141.36796 128.94533
17.066 137.79651 129.1127
17.068 128.60619 129.28532
17.07 140.54819 129.46381
17.072 122.81657 129.64876
17.074 116.61513 129.84101
17.076 136.10439 130.04009
17.078 133.97239 130.24629
17.08 138.95678 130.45918
17.082 138.44093 130.67785
17.084 146.66243 130.90096
17.086 161.11186 131.12665
17.088 149.70313 131.35262
17.09 135.86617 131.57603
17.092 127.92662 131.79351
17.094 113.22473 132.00145
17.096 143.46699 132.19581
17.098 134.7572 132.37223
17.1 129.54133 132.52614
17.102 145.95336 132.65282
17.104 117.44319 132.74749
17.106 132.91437 132.80553
17.108 150.94656 132.82257
17.11 147.40906 132.79468
17.112 140.72592 132.7198
17.114 134.28599 132.59323
17.116 127.56798 132.4148
17.118 134.87622 132.18433
17.12 117.96751 131.90288
17.122 142.21939 131.57271
17.124 134.84313 131.19726
17.126 134.62929 130.78097
17.128 132.43094 130.32909
17.13 119.32439 129.84747
17.132 125.68445 129.34236
17.134 130.48222 128.82017
17.136 122.32904 128.28729
17.138 125.76805 127.75074
17.14 129.39087 127.21493
17.142 138.22716 126.68627
17.144 124.34756 126.16995
17.146 125.58074 125.67079
17.148 127.86882 125.19326
17.15 122.80763 124.74106
17.152 138.34859 124.31784
17.154 127.18774 123.9267
17.156 151.95866 123.5704
17.158 122.65237 123.25129
17.16 102.57318 122.97136
17.162 135.20955 122.73226
17.164 133.75768 122.53531
17.166 135.52411 122.38196
17.168 148.73326 122.27185
17.17 123.35197 122.20579
17.172 126.09087 122.18373
17.174 138.59743 122.20535
17.176 134.5352 122.26997
17.178 135.58245 122.37662
17.18 136.10202 122.52399
17.182 136.84212 122.71044
17.184 133.50958 122.93402
17.186 133.01666 123.19248
17.188 124.20914 123.48322
17.19 135.33308 123.80324
17.192 113.69691 124.14942
17.194 135.98736 124.51813
17.196 138.69235 124.90536
17.198 136.34072 125.30688
17.2 141.32729 125.71578
17.202 139.55487 126.13174
17.204 126.90529 126.54728
17.206 124.51147 126.95697
17.208 127.60528 127.35524
17.21 153.15249 127.73626
17.212 139.02644 128.09438
17.214 144.99922 128.42489
17.216 144.84223 128.72231
17.218 132.94547 128.98216
17.22 124.93571 129.20074
17.222 122.86869 129.37495
17.224 137.03953 129.50301
17.226 124.33721 129.58418
17.228 135.71276 129.61887
17.23 141.99341 129.60871
17.232 129.39136 129.55635
17.234 140.1129 129.46504
17.236 143.35434 129.33926
17.238 129.74483 129.18383
17.24 132.9185 129.00391
17.242 128.05731 128.80476
17.244 124.64708 128.59162
17.246 134.73509 128.3695
17.248 113.0099 128.14308
17.25 136.74818 127.91665
17.252 138.52766 127.69402
17.254 138.82433 127.47853
17.256 121.91978 127.273
17.258 142.65614 127.07978
17.26 129.08216 126.90072
17.262 127.15203 126.73727
17.264 127.76892 126.59047
17.266 136.76703 126.46102
17.268 134.12519 126.34932
17.27 118.29104 126.25555
17.272 123.87865 126.17968
17.274 112.8446 126.12161
17.276 129.43736 126.08112
17.278 133.61504 126.05799
17.28 139.07075 126.05202
17.282 133.23476 126.06313
17.284 130.51646 126.09107
17.286 132.95168 126.13589
17.288 115.61465 126.19768
17.29 103.0165 126.27684
17.292 155.91074 126.37303
17.294 134.61619 126.48678
17.296 127.0183 126.61842
17.298 144.80405 126.76828
17.3 137.71591 126.93678
17.302 119.29351 127.12433
17.304 147.04139 127.33135
17.306 114.24414 127.55827
17.308 135.6915 127.80549
17.31 135.83393 128.07334
17.312 144.10934 128.36203
17.314 123.36044 128.67158
17.316 128.02088 129.0018
17.318 132.69355 129.35217
17.32 132.69037 129.72184
17.322 126.63813 130.10953
17.324 139.62691 130.51368
17.326 137.26373 130.93177
17.328 133.81251 131.36125
17.33 129.84727 131.79559
17.332 149.07656 132.23785
17.334 125.78798 132.68071
17.336 125.96771 133.12032
17.338 150.13722 133.55178
17.34 104.37545 133.97054
17.342 154.26159 134.37283
17.344 137.42953 134.75499
17.346 118.41773 135.11399
17.348 154.2331 135.44753
17.35 135.8792 135.75417
17.352 126.5685 136.03354
17.354 144.28079 136.28565
17.356 129.04116 136.51165
17.358 146.21699 136.71313
17.36 128.60862 136.89206
17.362 146.79997 137.04973
17.364 151.65156 137.18974
17.366 134.4519 137.31299
17.368 143.11305 137.42076
17.37 138.89893 137.51372
17.372 138.53206 137.59186
17.374 129.54639 137.6545
17.376 134.24976 137.70021
17.378 125.65869 137.72693
17.38 127.03921 137.73207
17.382 117.11895 137.71261
17.384 141.87763 137.66526
17.386 129.48766 137.58668
17.388 145.53533 137.47402
17.39 147.48381 137.32372
17.392 139.63681 137.13385
17.394 134.02643 136.90287
17.396 131.85071 136.63012
17.398 119.54461 136.31594
17.4 126.71346 135.96209
17.402 142.80162 135.57004
17.404 131.03514 135.14344
17.406 134.91382 134.68624
17.408 139.13525 134.20297
17.41 133.96672 133.69848
17.412 128.20738 133.17782
17.414 131.27921 132.64566
17.416 129.83548 132.10937
17.418 127.88415 131.56897
17.42 141.84518 131.03103
17.422 137.01888 130.4977
17.424 146.61764 129.97257
17.426 130.82868 129.45681
17.428 112.10413 128.95383
17.43 127.67174 128.46328
17.432 119.9032 127.98599
17.434 119.11446 127.52384
17.436 119.65669 127.07265
17.438 120.87024 126.63357
17.44 130.71869 126.20566
17.442 127.29903 125.78783
17.444 122.00701 125.379
17.446 101.03385 124.97604
17.448 127.36975 124.58238
17.45 120.62395 124.19528
17.452 127.25604 123.81454
17.454 136.40877 123.44017
17.456 119.67284 123.07251
17.458 121.61407 122.71234
17.46 126.255 122.36019
17.462 112.4758 122.01719
17.464 118.53306 121.68358
17.466 139.85386 121.36208
17.468 124.20706 121.05289
17.47 121.85293 120.75695
17.472 119.50327 120.47507
17.474 122.73678 120.20822
17.476 129.63123 119.95635
17.478 111.52879 119.7202
17.48 123.00241 119.49992
17.482 123.64419 119.29575
17.484 114.8879 119.10779
17.486 133.03442 118.93607
17.488 107.69311 118.78061
17.49 112.6127 118.6414
17.492 108.97651 118.51842
17.494 118.06807 118.41162
17.496 123.93212 118.32096
17.498 121.10257 118.24637
17.5 128.65299 118.18775
17.502 126.17746 118.14508
17.504 131.17037 118.11784
17.506 118.52806 118.10594
17.508 133.16948 118.10877
17.51 108.8208 118.12585
17.512 140.8547 118.15651
17.514 137.10939 118.19992
17.516 132.25442 118.25509
17.518 126.5325 118.32088
17.52 139.52 118.39602
17.522 122.15215 118.47906
17.524 123.50839 118.56845
17.526 116.99208 118.6625
17.528 124.71908 118.75945
17.53 115.30683 118.85772
17.532 117.72409 118.95511
17.534 124.97893 119.05006
17.536 115.66204 119.14116
17.538 116.48536 119.22702
17.54 121.22649 119.30659
17.542 113.92273 119.37926
17.544 132.39509 119.44578
17.546 119.3615 119.50439
17.548 126.49445 119.55721
17.55 133.85552 119.60439
17.552 128.29842 119.64786
17.554 121.17755 119.68898
17.556 128.69153 119.73056
17.558 122.05005 119.77435
17.56 141.66444 119.82255
17.562 128.74945 119.87738
17.564 133.00511 119.94066
17.566 126.80516 120.01505
17.568 115.96243 120.10212
17.57 132.2051 120.20482
17.572 122.1419 120.32215
17.574 106.64149 120.45668
17.576 128.22322 120.60954
17.578 122.31301 120.78165
17.58 118.23511 120.97376
17.582 114.41137 121.18636
17.584 133.20719 121.41981
17.586 117.13866 121.67421
17.588 113.11761 121.94948
17.59 115.8243 122.24525
17.592 117.92576 122.56103
17.594 102.87182 122.89571
17.596 145.08842 123.2483
17.598 128.48917 123.61707
17.6 117.45696 124.00028
17.602 120.97325 124.39579
17.604 127.07388 124.80114
17.606 147.63237 125.21342
17.608 121.70589 125.63021
17.61 110.72929 126.04842
17.612 126.12326 126.46506
17.614 122.48653 126.87686
17.616 136.65662 127.28143
17.618 136.9241 127.67689
17.62 136.26092 128.06034
17.622 125.91042 128.43078
17.624 144.82092 128.78744
17.626 124.05807 129.12917
17.628 117.39979 129.456
17.63 124.22492 129.76795
17.632 140.95116 130.06516
17.634 152.60428 130.34777
17.636 116.772 130.61577
17.638 133.1877 130.86891
17.64 129.35299 131.10658
17.642 117.20696 131.32778
17.644 156.08561 131.53107
17.646 127.9444 131.71458
17.648 138.89955 131.87606
17.65 131.88748 132.013
17.652 132.50605 132.12266
17.654 141.2861 132.20227
17.656 145.86012 132.24911
17.658 142.9592 132.26063
17.66 117.47772 132.23464
17.662 151.69085 132.1693
17.664 137.10875 132.06327
17.666 125.07094 131.91572
17.668 130.40657 131.72626
17.67 143.31792 131.4951
17.672 145.00251 131.22292
17.674 133.78182 130.91089
17.676 132.30566 130.5607
17.678 147.14314 130.17434
17.68 128.76531 129.75437
17.682 146.89485 129.30371
17.684 151.7703 128.82563
17.686 111.50888 128.32372
17.688 129.93684 127.80218
17.69 144.42069 127.26419
17.692 104.3242 126.71419
17.694 150.02216 126.15617
17.696 145.59719 125.59404
17.698 129.49609 125.03152
17.7 144.63208 124.47207
17.702 127.04913 123.9189
17.704 109.45017 123.3748
17.706 119.49583 122.8425
17.708 121.93555 122.32416
17.71 124.11348 121.82169
17.712 113.38826 121.33661
17.714 141.13232 120.87094
17.716 153.53993 120.42482
17.718 145.36452 119.99956
17.72 131.38717 119.59586
17.722 149.35275 119.21425
17.724 102.04097 118.85511
17.726 126.84823 118.51869
17.728 132.19902 118.20649
17.73 106.38287 117.91583
17.732 127.9177 117.64802
17.734 132.29536 117.40294
17.736 135.29285 117.1804
17.738 118.44648 116.98018
17.74 123.21926 116.80228
17.742 152.9684 116.64572
17.744 123.92835 116.51045
17.746 124.65642 116.39602
17.748 123.4926 116.30198
17.75 121.44031 116.22783
17.752 130.66606 116.17305
17.754 128.10991 116.13709
17.756 94.7139 116.11939
17.758 139.57463 116.11935
17.76 126.57465 116.13641
17.762 130.19406 116.16998
17.764 113.11837 116.21915
17.766 112.55009 116.28421
17.768 104.91606 116.36409
17.77 100.92655 116.45841
17.772 89.34855 116.56672
17.774 131.70913 116.68858
17.776 103.78901 116.82356
17.778 118.66529 116.9712
17.78 122.77371 117.13102
17.782 105.93914 117.30253
17.784 123.23459 117.48493
17.786 110.95891 117.6778
17.788 126.54628 117.87839
17.79 132.33628 118.08862
17.792 127.87141 118.30568
17.794 136.19235 118.52876
17.796 114.46632 118.75581
17.798 125.28074 118.98524
17.8 113.38866 119.21519
17.802 123.50338 119.44362
17.804 129.61487 119.6684
17.806 116.08725 119.88731
17.808 126.97913 120.09776
17.81 128.44282 120.29813
17.812 123.63747 120.48583
17.814 127.79571 120.65863
17.816 124.50523 120.81441
17.818 127.09985 120.95117
17.82 118.88698 121.06732
17.822 119.82702 121.16067
17.824 105.45986 121.2301
17.826 108.47782 121.2745
17.828 127.12186 121.29314
17.83 121.32303 121.28568
17.832 124.86874 121.25225
17.834 130.26574 121.19347
17.836 94.43911 121.11065
17.838 126.00452 121.00494
17.84 116.91834 120.87857
17.842 129.22704 120.73391
17.844 132.11119 120.57107
17.846 131.72444 120.39801
17.848 131.09201 120.21505
17.85 118.97124 120.02529
17.852 124.29531 119.83154
17.854 131.06394 119.63659
17.856 138.96583 119.44301
17.858 116.03046 119.25218
17.86 133.58212 119.06824
17.862 103.18363 118.89186
17.864 119.16753 118.72462
17.866 137.13643 118.56805
17.868 117.04463 118.4231
17.87 149.15265 118.29055
17.872 107.62271 118.17097
17.874 130.02098 118.06488
17.876 116.31524 117.97196
17.878 139.43063 117.89232
17.88 109.40286 117.82568
17.882 118.32421 117.77157
17.884 114.78178 117.72937
17.886 116.64037 117.69834
17.888 120.49436 117.67763
17.89 126.65927 117.66625
17.892 118.04801 117.66317
17.894 110.53997 117.66727
17.896 116.87066 117.67737
17.898 121.1507 117.69224
17.9 128.52622 117.71063
17.902 124.69563 117.73128
17.904 125.12676 117.75293
17.906 127.78513 117.77434
17.908 120.48155 117.79436
17.91 126.05837 117.81195
17.912 126.31007 117.8262
17.914 131.50356 117.83641
17.916 116.53991 117.84207
17.918 110.81232 117.84297
17.92 110.11317 117.83893
17.922 125.88326 117.83069
17.924 113.39427 117.81861
17.926 122.9911 117.80349
17.928 106.38645 117.78631
17.93 108.93765 117.7682
17.932 112.43942 117.75055
17.934 124.48361 117.73425
17.936 129.34085 117.72072
17.938 132.96699 117.71129
17.94 121.60337 117.70685
17.942 116.58295 117.70842
17.944 124.92365 117.71692
17.946 100.21217 117.73308
17.948 116.51263 117.75751
17.95 130.07259 117.79065
17.952 116.51798 117.83282
17.954 126.41274 117.88423
17.956 119.88713 117.945
17.958 97.6824 118.01516
17.96 122.40921 118.09482
17.962 120.6464 118.18364
17.964 123.21908 118.2819
17.966 114.71989 118.38956
17.968 112.04037 118.50674
17.97 120.62086 118.63362
17.972 99.07544 118.77046
17.974 116.1665 118.91762
17.976 132.83432 119.07548
17.978 111.40426 119.24449
17.98 123.99979 119.42506
17.982 128.56779 119.6176
17.984 109.42131 119.82245
17.986 128.67906 120.03982
17.988 126.14064 120.26985
17.99 133.19695 120.51255
17.992 127.7529 120.76763
17.994 125.23277 121.03486
17.996 130.85361 121.31366
17.998 131.91083 121.60295
18 120.26985 121.90254
18.002 126.03377 122.21091
18.004 132.93272 122.52678
18.006 110.92274 122.84829
18.008 149.58442 123.17375
18.01 128.71016 123.50076
18.012 134.27635 123.82698
18.014 143.4046 124.14969
18.016 114.95128 124.46596
18.018 106.22521 124.77271
18.02 131.2339 125.06677
18.022 135.86231 125.34499
18.024 117.83518 125.60434
18.026 109.84953 125.84225
18.028 131.34861 126.05603
18.03 131.88754 126.24399
18.032 137.80019 126.40519
18.034 128.16784 126.53856
18.036 133.82977 126.6445
18.038 136.6939 126.72382
18.04 105.00835 126.77797
18.042 137.24892 126.80888
18.044 117.58047 126.81889
18.046 146.93746 126.81059
18.048 128.67366 126.78713
18.05 144.85308 126.75027
18.052 163.62278 126.70303
18.054 133.69422 126.64777
18.056 122.96143 126.58667
18.058 129.73588 126.5213
18.06 113.57948 126.45322
18.062 133.11992 126.38355
18.064 121.95788 126.3133
18.066 125.94913 126.24306
18.068 129.74828 126.17295
18.07 112.80067 126.10434
18.072 126.0991 126.03726
18.074 152.24048 125.97228
18.076 125.87503 125.91011
18.078 123.71832 125.85163
18.08 149.19471 125.79796
18.082 128.77232 125.75042
18.084 127.13468 125.71056
18.086 132.95203 125.68009
18.088 131.47829 125.66086
18.09 150.31985 125.65476
18.092 135.51372 125.66376
18.094 145.38867 125.68973
18.096 131.38129 125.73444
18.098 118.84185 125.7988
18.1 148.5006 125.88589
18.102 125.78392 125.99577
18.104 133.46262 126.12955
18.106 139.28212 126.28801
18.108 105.06563 126.47108
18.11 124.46547 126.67886
18.112 135.47634 126.9109
18.114 132.45464 127.16637
18.116 131.55141 127.44407
18.118 129.5831 127.74241
18.12 133.99882 128.05945
18.122 125.66879 128.39292
18.124 143.03525 128.74024
18.126 134.15351 129.0986
18.128 115.41051 129.46507
18.13 127.24624 129.83653
18.132 146.00772 130.2101
18.134 125.01828 130.58288
18.136 145.66771 130.95225
18.138 130.54743 131.31595
18.14 132.62354 131.67215
18.142 133.70006 132.01949
18.144 146.05745 132.35709
18.146 123.9795 132.68456
18.148 150.70052 133.0019
18.15 139.62885 133.30943
18.152 128.3719 133.60767
18.154 133.78694 133.89719
18.156 155.93271 134.17943
18.158 140.46532 134.45284
18.16 140.32785 134.71833
18.162 140.09428 134.97575
18.164 141.68873 135.2236
18.166 135.10349 135.46081
18.168 133.55729 135.68525
18.17 119.8709 135.89465
18.172 157.59616 136.08614
18.174 128.31437 136.25657
18.176 133.22227 136.40267
18.178 143.5319 136.52115
18.18 127.59427 136.60895
18.182 138.93528 136.66338
18.184 141.9938 136.68231
18.186 112.22064 136.66392
18.188 158.56073 136.60848
18.19 150.61036 136.51587
18.192 125.6807 136.38726
18.194 144.76982 136.22463
18.196 118.82837 136.03066
18.198 138.97422 135.80858
18.2 153.32698 135.56205
18.202 150.29607 135.29464
18.204 149.96216 135.01021
18.206 110.45162 134.71236
18.208 143.06504 134.40438
18.21 138.80333 134.08918
18.212 122.46839 133.76924
18.214 143.18159 133.44659
18.216 129.94758 133.12261
18.218 126.38037 132.79843
18.22 135.08759 132.47474
18.222 115.77857 132.15194
18.224 119.57046 131.83017
18.226 136.24353 131.50947
18.228 138.32377 131.19163
18.23 111.21461 130.87307
18.232 114.22976 130.55582
18.234 134.36373 130.23986
18.236 162.7952 129.92554
18.238 121.5061 129.61354
18.24 118.90179 129.30429
18.242 129.52286 128.99841
18.244 111.48018 128.69642
18.246 150.91148 128.39882
18.248 143.42994 128.106
18.25 131.77714 127.81817
18.252 118.67996 127.53534
18.254 138.04943 127.25748
18.256 142.59663 126.98398
18.258 140.91508 126.71106
18.26 140.11961 126.44494
18.262 133.46378 126.18158
18.264 125.79709 125.92041
18.266 143.34097 125.66078
18.268 141.77857 125.40248
18.27 133.97537 125.14636
18.272 133.23482 124.89033
18.274 144.88109 124.63586
18.276 124.49136 124.38361
18.278 127.37204 124.13433
18.28 119.89792 123.88903
18.282 133.74556 123.64879
18.284 102.92569 123.4148
18.286 114.33806 123.18822
18.288 137.9589 122.97015
18.29 138.18719 122.76159
18.292 130.55189 122.56341
18.294 131.12239 122.37632
18.296 123.89129 122.20085
18.298 122.26555 122.03739
18.3 136.3332 121.88608
18.302 114.32958 121.74731
18.304 117.79914 121.62031
18.306 130.78554 121.50515
18.308 115.17705 121.40147
18.31 125.37436 121.3088
18.312 138.64967 121.22656
18.314 120.91294 121.15421
18.316 121.64365 121.09224
18.318 123.19179 121.03762
18.32 126.43316 120.99073
18.322 134.12213 120.95086
18.324 127.72774 120.91724
18.326 135.89846 120.88912
18.328 137.36741 120.8657
18.33 118.36108 120.84625
18.332 131.68337 120.82998
18.334 116.91796 120.81617
18.336 116.3912 120.80409
18.338 122.75781 120.79279
18.34 140.38393 120.78348
18.342 112.85815 120.7736
18.344 114.65069 120.76382
18.346 108.49781 120.75411
18.348 112.97186 120.7445
18.35 125.22366 120.73555
18.352 123.75615 120.72762
18.354 113.18962 120.72135
18.356 131.99578 120.71734
18.358 108.84909 120.71635
18.36 122.25598 120.71904
18.362 131.78737 120.72608
18.364 126.67917 120.73786
18.366 140.98606 120.75478
18.368 110.48246 120.777
18.37 123.8384 120.80446
18.372 111.57171 120.83695
18.374 120.78807 120.8737
18.376 106.03457 120.91452
18.378 122.63259 120.9582
18.38 107.01138 121.00374
18.382 104.11165 121.0499
18.384 121.15888 121.09532
18.386 118.64402 121.13857
18.388 154.26532 121.17812
18.39 129.64086 121.21248
18.392 128.20405 121.24012
18.394 122.78931 121.25964
18.396 116.30018 121.26972
18.398 122.92219 121.26921
18.4 118.59508 121.2553
18.402 117.28227 121.23108
18.404 124.61401 121.19429
18.406 111.39796 121.1449
18.408 145.4313 121.08337
18.41 134.51344 121.01015
18.412 113.76859 120.92667
18.414 126.17718 120.83411
18.416 134.07045 120.73416
18.418 132.39316 120.62895
18.42 133.89336 120.52068
18.422 134.72023 120.41168
18.424 133.96785 120.30447
18.426 104.28265 120.20122
18.428 121.32147 120.10469
18.43 137.11427 120.01654
18.432 136.63229 119.93917
18.434 105.71023 119.87456
18.436 151.23306 119.82465
18.438 123.44251 119.79067
18.44 117.30182 119.77415
18.442 137.63864 119.77629
18.444 140.51193 119.79804
18.446 134.12939 119.84016
18.448 119.0512 119.90322
18.45 111.693 119.98762
18.452 119.37 120.0936
18.454 133.67782 120.22094
18.456 115.40555 120.36958
18.458 130.48476 120.5392
18.46 119.85272 120.72926
18.462 131.66985 120.9391
18.464 125.1291 121.16787
18.466 140.36872 121.41459
18.468 116.69463 121.67809
18.47 146.52375 121.95702
18.472 137.86824 122.24988
18.474 133.36006 122.55496
18.476 131.39653 122.87039
18.478 125.53142 123.19411
18.48 129.85063 123.52388
18.482 148.01465 123.85727
18.484 115.86279 124.19173
18.486 134.82217 124.52469
18.488 121.55776 124.85313
18.49 121.09607 125.17434
18.492 126.68191 125.48552
18.494 138.51894 125.7838
18.496 126.61725 126.06681
18.498 136.02075 126.33202
18.5 130.45237 126.57727
18.502 120.42078 126.8007
18.504 121.53884 127.00079
18.506 136.29023 127.17643
18.508 141.1508 127.32672
18.51 126.66655 127.45129
18.512 128.76337 127.54989
18.514 119.33673 127.62268
18.516 127.13412 127.66929
18.518 152.30928 127.69145
18.52 122.62428 127.68901
18.522 131.56407 127.66243
18.524 122.21102 127.61196
18.526 103.09146 127.53793
18.528 123.20045 127.44046
18.53 150.70815 127.31948
18.532 141.15422 127.17481
18.534 123.49008 127.00617
18.536 129.48647 126.81321
18.538 149.34634 126.59566
18.54 153.0429 126.35332
18.542 147.24619 126.0864
18.544 138.8534 125.79488
18.546 134.05331 125.47956
18.548 130.18593 125.14149
18.55 135.87828 124.78208
18.552 121.24677 124.40316
18.554 129.70193 124.00715
18.556 129.92445 123.59607
18.558 134.38612 123.17288
18.56 124.92005 122.74046
18.562 120.67684 122.30178
18.564 132.25827 121.8598
18.566 117.72732 121.41801
18.568 124.40123 120.97804
18.57 141.64356 120.5431
18.572 145.09544 120.11562
18.574 111.29809 119.69837
18.576 137.71302 119.29228
18.578 138.50613 118.89969
18.58 126.73845 118.52216
18.582 134.39708 118.16106
18.584 117.79081 117.81755
18.586 113.98954 117.49266
18.588 124.07959 117.18708
18.59 131.837 116.90151
18.592 124.60892 116.63642
18.594 118.16516 116.39148
18.596 115.56883 116.16821
18.598 109.66837 115.96605
18.6 122.91222 115.78486
18.602 124.72419 115.62451
18.604 142.51509 115.48472
18.606 101.27614 115.36509
18.608 125.60053 115.26509
18.61 118.15082 115.18403
18.612 130.41913 115.12179
18.614 124.71288 115.07705
18.616 119.11582 115.04922
18.618 110.98492 115.03721
18.62 104.29032 115.0401
18.622 123.29993 115.05682
18.624 114.89826 115.0862
18.626 118.58704 115.12701
18.628 133.18959 115.17795
18.63 115.31701 115.23771
18.632 134.83042 115.30472
18.634 105.15829 115.37756
18.636 136.51166 115.4546
18.638 119.02676 115.5355
18.64 115.89085 115.61643
18.642 148.96836 115.69678
18.644 104.35503 115.77505
18.646 120.12768 115.84977
18.648 131.38765 115.91954
18.65 117.96271 115.98314
18.652 133.58613 116.03955
18.654 117.73419 116.08797
18.656 127.39312 116.12782
18.658 108.75069 116.15884
18.66 113.44911 116.18115
18.662 102.92259 116.19482
18.664 140.15371 116.20051
18.666 105.73242 116.19901
18.668 114.00569 116.1913
18.67 116.37269 116.17857
18.672 133.51719 116.1621
18.674 136.50692 116.14328
18.676 105.63999 116.12355
18.678 116.97389 116.1044
18.68 121.72058 116.08729
18.682 114.75312 116.07367
18.684 133.14234 116.06491
18.686 125.39979 116.06235
18.688 130.27893 116.06722
18.69 118.72357 116.08136
18.692 105.07197 116.10441
18.694 118.67045 116.13808
18.696 123.43403 116.18296
18.698 113.73211 116.23981
18.7 116.643 116.3092
18.702 128.66647 116.39146
18.704 121.09071 116.48686
18.706 134.45678 116.59599
18.708 113.90812 116.71787
18.71 111.76949 116.85277
18.712 128.29884 117.00034
18.714 115.59219 117.16009
18.716 139.24278 117.33137
18.718 97.41027 117.51337
18.72 132.37163 117.70513
18.722 115.22061 117.90555
18.724 108.06771 118.1134
18.726 129.20282 118.32729
18.728 126.43558 118.54576
18.73 113.24986 118.76715
18.732 112.98854 118.98981
18.734 117.99619 119.21196
18.736 122.94263 119.43179
18.738 101.62553 119.64749
18.74 128.12178 119.85723
18.742 112.38635 120.05945
18.744 127.99885 120.25205
18.746 111.43778 120.43369
18.748 119.43109 120.60304
18.75 98.8051 120.75892
18.752 100.95048 120.90053
18.754 115.67927 121.02736
18.756 115.26608 121.13935
18.758 118.21948 121.23656
18.76 109.39878 121.31968
18.762 131.39767 121.38966
18.764 120.83569 121.44777
18.766 99.60986 121.49555
18.768 129.59063 121.53473
18.77 111.90371 121.5672
18.772 126.14411 121.5949
18.774 121.94494 121.61979
18.776 110.43537 121.64379
18.778 115.75826 121.66875
18.78 116.55004 121.6964
18.782 141.50419 121.72835
18.784 112.11907 121.76608
18.786 131.28365 121.81096
18.788 126.48293 121.86425
18.79 98.75968 121.92711
18.792 136.45662 122.00071
18.794 128.68837 122.08615
18.796 133.8101 122.18461
18.798 138.28898 122.29729
18.8 113.26033 122.42553
18.802 123.38393 122.57074
18.804 132.56927 122.73447
18.806 119.70536 122.91841
18.808 123.42077 123.12438
18.81 123.8793 123.35414
18.812 122.59843 123.60963
18.814 131.47769 123.89279
18.816 105.65472 124.20544
18.818 133.71942 124.54913
18.82 123.18798 124.92596
18.822 134.52805 125.33714
18.824 125.71518 125.7839
18.826 123.31358 126.26724
18.828 103.82458 126.78784
18.83 117.00136 127.34608
18.832 140.72617 127.94205
18.834 144.02571 128.5754
18.836 146.48343 129.24548
18.838 118.30442 129.95125
18.84 131.23317 130.69121
18.842 116.57732 131.4635
18.844 109.15201 132.2658
18.846 140.36471 133.09545
18.848 138.49966 133.94916
18.85 120.60211 134.82342
18.852 127.28155 135.71428
18.854 128.19944 136.61745
18.856 127.25378 137.52823
18.858 123.19994 138.44174
18.86 120.21232 139.35297
18.862 140.44366 140.25679
18.864 144.59895 141.14803
18.866 151.88202 142.02149
18.868 125.63458 142.87252
18.87 149.80771 143.69633
18.872 158.74418 144.48842
18.874 135.09503 145.24469
18.876 134.94427 145.96135
18.878 148.7711 146.63489
18.88 137.29016 147.26196
18.882 136.44096 147.83985
18.884 156.82105 148.36567
18.886 141.14703 148.83674
18.888 141.11568 149.25086
18.89 118.69337 149.60565
18.892 145.48274 149.89867
18.894 138.001 150.12905
18.896 139.43063 150.29433
18.898 162.37403 150.39352
18.9 135.10554 150.42583
18.902 155.4792 150.391
18.904 144.17039 150.28935
18.906 120.0626 150.1219
18.908 134.57425 149.89041
18.91 155.74245 149.59719
18.912 128.23351 149.24541
18.914 141.1872 148.8388
18.916 140.71499 148.38161
18.918 147.71355 147.87852
18.92 130.73042 147.33452
18.922 103.59281 146.75471
18.924 166.50233 146.14413
18.926 142.97241 145.50794
18.928 137.0009 144.85091
18.93 137.19818 144.17754
18.932 137.38814 143.49196
18.934 147.97644 142.79784
18.936 133.84785 142.09851
18.938 154.67069 141.39639
18.94 142.29728 140.69419
18.942 149.52154 139.99363
18.944 140.07653 139.29622
18.946 144.78261 138.6034
18.948 142.73982 137.9154
18.95 122.916 137.23316
18.952 132.9868 136.55711
18.954 128.28719 135.88757
18.956 122.87025 135.22477
18.958 147.50721 134.56894
18.96 142.45829 133.92061
18.962 139.9766 133.27955
18.964 172.03926 132.64649
18.966 120.95539 132.02205
18.968 141.69741 131.40702
18.97 145.25173 130.80239
18.972 132.69701 130.20959
18.974 145.08244 129.6296
18.976 122.39706 129.06384
18.978 125.68779 128.51404
18.98 137.17186 127.98182
18.982 123.26955 127.46878
18.984 146.30566 126.97647
18.986 141.24089 126.50634
18.988 116.02708 126.05967
18.99 139.12397 125.6376
18.992 114.42374 125.24106
18.994 143.88117 124.87075
18.996 135.83656 124.52717
18.998 114.82058 124.21061
19 124.7135 123.92112
19.002 106.1069 123.65852
19.004 127.26981 123.42247
19.006 136.15931 123.2124
19.008 98.08164 123.02755
19.01 133.01238 122.86701
19.012 130.81427 122.72968
19.014 138.99467 122.61436
19.016 135.07402 122.51971
19.018 130.03565 122.4443
19.02 126.19577 122.38667
19.022 118.21639 122.34529
19.024 120.45296 122.3187
19.026 150.86967 122.30544
19.028 116.22767 122.30424
19.03 108.56312 122.31366
19.032 123.54446 122.33265
19.034 129.93477 122.36024
19.036 120.49889 122.39559
19.038 112.49999 122.438
19.04 132.30117 122.48689
19.042 127.1217 122.54174
19.044 124.34122 122.60215
19.046 160.49985 122.66773
19.048 120.97332 122.73812
19.05 133.84043 122.81296
19.052 115.38134 122.89198
19.054 107.95056 122.97463
19.056 122.95599 123.06049
19.058 127.58856 123.14954
19.06 134.72622 123.24136
19.062 147.25626 123.33584
19.064 130.47993 123.43294
19.066 121.18808 123.53279
19.068 134.22657 123.63572
19.07 121.72325 123.74224
19.072 132.56318 123.85305
19.074 133.34908 123.96887
19.076 127.56108 124.09104
19.078 119.33485 124.22054
19.08 124.40836 124.35875
19.082 127.67998 124.50663
19.084 130.78084 124.66556
19.086 131.36712 124.83676
19.088 130.34703 125.02132
19.09 125.85445 125.22025
19.092 125.72703 125.43439
19.094 121.12698 125.66435
19.096 118.36907 125.91057
19.098 138.80657 126.17261
19.1 132.43151 126.45171
19.102 125.08693 126.74672
19.104 120.29981 127.057
19.106 130.67229 127.38151
19.108 134.20206 127.71901
19.11 119.83787 128.06773
19.112 135.15899 128.42582
19.114 111.08267 128.7904
19.116 130.59647 129.15888
19.118 121.49674 129.5281
19.12 149.96587 129.89459
19.122 130.3851 130.25433
19.124 106.99581 130.60383
19.126 129.58329 130.93866
19.128 119.09096 131.25462
19.13 147.74261 131.54748
19.132 151.59323 131.81317
19.134 125.51154 132.04793
19.136 130.5467 132.24821
19.138 109.08216 132.41108
19.14 131.08083 132.53401
19.142 131.82834 132.61544
19.144 126.01029 132.65422
19.146 118.07596 132.64983
19.148 128.24999 132.60269
19.15 123.95485 132.51387
19.152 136.66018 132.38505
19.154 114.88194 132.21855
19.156 102.50415 132.01718
19.158 118.83168 131.78417
19.16 125.81937 131.52309
19.162 116.86165 131.23817
19.164 119.73027 130.9324
19.166 120.76353 130.61017
19.168 119.72592 130.27534
19.17 133.53293 129.93163
19.172 117.08544 129.58261
19.174 112.20532 129.23156
19.176 136.9976 128.88154
19.178 124.74937 128.53529
19.18 132.01592 128.19529
19.182 127.80374 127.86376
19.184 127.04956 127.54262
19.186 127.90953 127.23355
19.188 106.39541 126.93842
19.19 112.24163 126.6579
19.192 127.71427 126.39354
19.194 107.84565 126.14644
19.196 138.71368 125.91779
19.198 125.94178 125.70826
19.2 139.78842 125.51896
19.202 133.06985 125.35074
19.204 128.71088 125.20445
19.206 122.96142 125.08089
19.208 131.51695 124.9807
19.21 139.61489 124.90451
19.212 109.1683 124.85275
19.214 133.65531 124.82572
19.216 122.92277 124.82353
19.218 119.01972 124.84623
19.22 125.49376 124.89316
19.222 131.8589 124.96388
19.224 141.08192 125.05757
19.226 133.62063 125.17309
19.228 143.44685 125.30913
19.23 122.44708 125.46393
19.232 104.45301 125.63562
19.234 124.96692 125.8221
19.236 125.32263 126.02088
19.238 118.46112 126.22943
19.24 116.92674 126.44496
19.242 110.12383 126.66453
19.244 115.70309 126.88505
19.246 139.03343 127.10329
19.248 142.57378 127.31594
19.25 147.32785 127.51959
19.252 126.44632 127.71101
19.254 118.69987 127.88629
19.256 130.16174 128.04219
19.258 112.7776 128.17535
19.26 132.34119 128.28246
19.262 117.11246 128.36053
19.264 130.92628 128.40683
19.266 130.67816 128.41907
19.268 141.43708 128.39546
19.27 127.94259 128.33479
19.272 136.17063 128.23654
19.274 155.02196 128.10091
19.276 133.9516 127.92881
19.278 122.48697 127.72188
19.28 147.6826 127.4824
19.282 124.75554 127.21322
19.284 101.45148 126.91778
19.286 126.49777 126.59961
19.288 140.36643 126.26276
19.29 127.48423 125.91133
19.292 129.37356 125.54946
19.294 117.08762 125.18127
19.296 118.47685 124.81078
19.298 124.63716 124.4422
19.3 139.9314 124.07846
19.302 119.54397 123.72342
19.304 122.47999 123.38026
19.306 139.62887 123.05201
19.308 104.75729 122.74147
19.31 105.71775 122.45118
19.312 122.96324 122.18351
19.314 108.06461 121.94058
19.316 142.22834 121.72436
19.318 131.99055 121.53662
19.32 133.1632 121.37887
19.322 122.37542 121.25255
19.324 97.27666 121.15882
19.326 130.10938 121.09872
19.328 106.67805 121.07311
19.33 116.23039 121.08265
19.332 108.51077 121.12784
19.334 124.02857 121.20865
19.336 115.52789 121.32602
19.338 123.69001 121.47934
19.34 122.85667 121.66849
19.342 114.73188 121.89306
19.344 128.83696 122.15247
19.346 112.24345 122.44594
19.348 120.87919 122.77253
19.35 122.8809 123.13114
19.352 120.76381 123.52045
19.354 121.95409 123.93902
19.356 119.90136 124.38524
19.358 120.9579 124.85732
19.36 118.1367 125.35333
19.362 126.32148 125.87117
19.364 129.06234 126.40857
19.366 123.59854 126.96308
19.368 122.95383 127.53201
19.37 104.6616 128.11271
19.372 127.98254 128.70209
19.374 119.14256 129.29694
19.376 140.62236 129.89384
19.378 124.13256 130.48918
19.38 128.99644 131.07918
19.382 121.61252 131.66013
19.384 124.44771 132.22746
19.386 137.34247 132.77731
19.388 133.79746 133.30554
19.39 147.35575 133.80763
19.392 134.78666 134.28038
19.394 117.24084 134.72061
19.396 131.27294 135.1251
19.398 139.78678 135.4909
19.4 138.63194 135.81641
19.402 127.89962 136.10059
19.404 130.20699 136.34319
19.406 144.78806 136.54482
19.408 119.12563 136.70688
19.41 132.4552 136.83019
19.412 129.81839 136.92031
19.414 106.52648 136.97923
19.416 136.0393 137.01073
19.418 137.92189 137.01882
19.42 141.55214 137.00759
19.422 133.59232 136.98111
19.424 119.26064 136.94326
19.426 148.80435 136.89759
19.428 143.61891 136.84757
19.43 127.4277 136.79589
19.432 160.57749 136.74494
19.434 112.80134 136.69662
19.436 129.76681 136.65228
19.438 126.51097 136.61281
19.44 136.58454 136.57857
19.442 136.03826 136.54996
19.444 130.18637 136.52554
19.446 131.4045 136.5049
19.448 138.5765 136.48666
19.45 124.94051 136.46979
19.452 137.52019 136.45251
19.454 139.00768 136.43312
19.456 118.11244 136.40993
19.458 147.51967 136.38128
19.46 130.37041 136.34566
19.462 139.4378 136.30124
19.464 143.22403 136.24792
19.466 130.74999 136.18368
19.468 130.47027 136.10919
19.47 148.44902 136.02369
19.472 127.62062 135.92712
19.474 114.69271 135.81978
19.476 118.56911 135.70228
19.478 124.6112 135.57554
19.48 144.36051 135.44072
19.482 140.78772 135.29929
19.484 144.07363 135.15295
19.486 123.1966 135.00364
19.488 131.33126 134.85349
19.49 137.42188 134.70477
19.492 102.91913 134.55987
19.494 116.12883 134.42123
19.496 117.88538 134.29129
19.498 136.85465 134.17246
19.5 116.05309 134.06706
19.502 124.26245 133.97731
19.504 117.7016 133.90529
19.506 128.90718 133.85296
19.508 128.48944 133.82212
19.51 120.55087 133.81444
19.512 136.85824 133.83146
19.514 121.36363 133.87462
19.516 127.48501 133.94523
19.518 135.21206 134.04453
19.52 127.30687 134.17367
19.522 113.51844 134.33372
19.524 139.50593 134.52504
19.526 149.32709 134.7498
19.528 157.45397 135.00661
19.53 135.80196 135.29757
19.532 109.89074 135.62521
19.534 132.90634 135.98818
19.536 113.40991 136.38672
19.538 124.51837 136.82082
19.54 113.96391 137.29022
19.542 122.97802 137.79436
19.544 129.84534 138.33234
19.546 128.58906 138.90291
19.548 112.97353 139.50446
19.55 139.35875 140.13498
19.552 112.4809 140.79209
19.554 112.4909 141.47305
19.556 154.25099 142.17471
19.558 140.2505 142.89361
19.56 130.55256 143.62592
19.562 133.27433 144.36712
19.564 138.95097 145.11349
19.566 142.74579 145.85985
19.568 133.83911 146.6011
19.57 136.39814 147.33181
19.572 119.25169 148.0463
19.574 127.37191 148.7386
19.576 133.34308 149.40257
19.578 117.89705 150.03193
19.58 131.43718 150.62039
19.582 121.64707 151.16176
19.584 122.03051 151.65014
19.586 138.87125 152.08009
19.588 145.72165 152.44679
19.59 140.38436 152.74628
19.592 147.4596 152.97328
19.594 140.77835 153.13067
19.596 145.49919 153.21558
19.598 132.78556 153.22905
19.6 141.50566 153.17331
19.602 165.84713 153.05205
19.604 142.64602 152.8702
19.606 145.75627 152.63262
19.608 152.93245 152.34881
19.61 140.24104 152.02534
19.612 156.25403 151.67057
19.614 155.13951 151.29315
19.616 130.88733 150.90187
19.618 167.2087 150.50545
19.62 134.08118 150.11238
19.622 127.67538 149.73082
19.624 155.52056 149.36797
19.626 163.7819 149.03194
19.628 125.49265 148.72905
19.63 118.90196 148.46528
19.632 147.75575 148.24611
19.634 141.56174 148.07643
19.636 122.24176 147.96054
19.638 154.04549 147.90219
19.64 149.8808 147.90452
19.642 141.37742 147.97013
19.644 163.21756 148.10101
19.646 142.91871 148.29859
19.648 119.24619 148.56367
19.65 154.5302 148.89646
19.652 155.94731 149.29655
19.654 142.42041 149.76286
19.656 143.34221 150.29371
19.658 157.90091 150.88677
19.66 141.41405 151.53907
19.662 140.50598 152.24703
19.664 135.74622 153.00648
19.666 134.84142 153.81268
19.668 139.42952 154.66031
19.67 149.7706 155.54352
19.672 156.09484 156.45599
19.674 130.03997 157.39088
19.676 144.69152 158.34091
19.678 137.55569 159.29835
19.68 148.35376 160.25507
19.682 133.5635 161.20258
19.684 152.79871 162.13209
19.686 141.40762 163.03456
19.688 140.92694 163.90082
19.69 168.84064 164.72166
19.692 137.13502 165.48798
19.694 149.0408 166.19084
19.696 158.40824 166.82189
19.698 167.54287 167.37317
19.7 172.91887 167.83756
19.702 141.50058 168.20885
19.704 150.03765 168.4817
19.706 164.50365 168.65284
19.708 145.70158 168.71953
19.71 160.00919 168.68089
19.712 153.95463 168.5373
19.714 147.96244 168.291
19.716 154.97331 167.94527
19.718 141.64584 167.50468
19.72 142.14965 166.97469
19.722 168.20761 166.36244
19.724 150.13448 165.6748
19.726 150.94279 164.91937
19.728 142.71745 164.10396
19.73 142.43475 163.23641
19.732 163.25211 162.32446
19.734 140.83936 161.37561
19.736 163.23782 160.39708
19.738 154.60547 159.39572
19.74 127.5751 158.37801
19.742 155.4208 157.35003
19.744 132.16895 156.31745
19.746 140.28357 155.28557
19.748 157.16989 154.25921
19.75 120.03761 153.24283
19.752 157.65592 152.24039
19.754 131.11468 151.25541
19.756 127.55023 150.29093
19.758 132.01227 149.34922
19.76 129.64909 148.43281
19.762 145.13019 147.54296
19.764 145.6048 146.6807
19.766 118.66032 145.84662
19.768 143.21763 145.04087
19.77 135.10678 144.26325
19.772 129.99119 143.51325
19.774 137.11015 142.79027
19.776 123.55497 142.09344
19.778 130.08781 141.42185
19.78 144.66546 140.77464
19.782 133.02639 140.151
19.784 140.4368 139.54876
19.786 133.19048 138.97037
19.788 115.60431 138.41404
19.79 145.89633 137.87963
19.792 115.45404 137.36721
19.794 133.90883 136.87705
19.796 148.20407 136.40956
19.798 131.54794 135.96528
19.8 141.40003 135.54482
19.802 130.81958 135.14888
19.804 125.4013 134.77811
19.806 139.53161 134.43317
19.808 138.60557 134.11465
19.81 148.36062 133.82305
19.812 136.95176 133.55874
19.814 123.59409 133.32195
19.816 112.42452 133.11278
19.818 130.45235 132.93116
19.82 109.22785 132.77691
19.822 134.07968 132.64969
19.824 108.94893 132.54906
19.826 126.11208 132.47453
19.828 122.41379 132.42554
19.83 130.14454 132.40152
19.832 136.87907 132.40196
19.834 130.90928 132.42638
19.836 138.69845 132.47443
19.838 131.13724 132.54584
19.84 123.80294 132.64049
19.842 137.01933 132.75838
19.844 106.256 132.8996
19.846 128.19575 133.06438
19.848 147.02949 133.25296
19.85 110.21596 133.46565
19.852 145.35334 133.70275
19.854 115.87153 133.96454
19.856 125.32684 134.25121
19.858 139.52196 134.56289
19.86 119.3581 134.89959
19.862 140.59706 135.26121
19.864 134.53613 135.64748
19.866 144.3365 136.05799
19.868 133.52729 136.49215
19.87 108.78867 136.94918
19.872 119.52341 137.42808
19.874 119.74261 137.92761
19.876 115.79647 138.44628
19.878 133.00881 138.98231
19.88 143.59302 139.53357
19.882 120.44884 140.0976
19.884 127.51267 140.67156
19.886 121.52222 141.25216
19.888 120.9128 141.83568
19.89 141.12113 142.41795
19.892 136.26393 142.99425
19.894 140.47183 143.5594
19.896 108.55974 144.10798
19.898 124.46729 144.63386
19.9 132.77576 145.13065
19.902 123.66313 145.59175
19.904 125.26265 146.01007
19.906 129.09371 146.3796
19.908 126.94121 146.69353
19.91 134.47962 146.9448
19.912 118.36547 147.13
19.914 126.79741 147.2435
19.916 115.44013 147.28167
19.918 143.27071 147.24198
19.92 123.59276 147.12312
19.922 121.1665 146.92496
19.924 138.53718 146.64862
19.926 127.10975 146.29631
19.928 126.66448 145.87125
19.93 130.35243 145.37751
19.932 104.28102 144.81988
19.934 137.33589 144.20364
19.936 123.97709 143.53444
19.938 145.75072 142.81817
19.94 126.89802 142.06078
19.942 103.49218 141.26826
19.944 130.96668 140.44649
19.946 131.13322 139.60122
19.948 127.77723 138.73804
19.95 121.76103 137.86234
19.952 128.96059 136.97927
19.954 109.75666 136.09379
19.956 126.53488 135.21058
19.958 119.44931 134.33412
19.96 131.67534 133.46858
19.962 104.94726 132.61776
19.964 124.29209 131.78562
19.966 147.65178 130.97538
19.968 114.10575 130.19015
19.97 130.30029 129.43272
19.972 100.76817 128.70563
19.974 114.43913 128.01086
19.976 98.47431 127.35091
19.978 121.70303 126.72723
19.98 119.29796 126.14128
19.982 126.97128 125.59431
19.984 125.16408 125.08723
19.986 118.98277 124.62103
19.988 132.38635 124.19625
19.99 118.29702 123.81337
19.992 117.06617 123.47272
19.994 128.01605 123.17448
19.996 128.09087 122.91875
19.998 123.43328 122.70522
20 116.98245 122.53437
20.002 116.13429 122.40574
20.004 123.67193 122.31911
20.006 117.7653 122.27418
20.008 128.45243 122.27063
20.01 122.10132 122.30808
20.012 120.24857 122.38611
20.014 116.35168 122.50426
20.016 117.3216 122.66203
20.018 119.82723 122.8589
20.02 106.38946 123.09426
20.022 130.29983 123.36748
20.024 121.07053 123.67789
20.026 135.45991 124.02471
20.028 127.21398 124.40712
20.03 126.78542 124.82419
20.032 131.37179 125.27488
20.034 126.31867 125.75805
20.036 120.80457 126.27243
20.038 122.98755 126.8166
20.04 122.61144 127.38901
20.042 134.78657 127.98791
20.044 115.35211 128.61141
20.046 121.85924 129.25747
20.048 139.1009 129.92242
20.05 127.68072 130.60677
20.052 125.45861 131.30657
20.054 156.54914 132.01918
20.056 123.91066 132.74189
20.058 145.00259 133.47188
20.06 126.54304 134.20628
20.062 121.49585 134.9422
20.064 134.01164 135.6767
20.066 135.49323 136.40686
20.068 141.22207 137.12976
20.07 141.10092 137.84248
20.072 105.78884 138.54214
20.074 129.32622 139.22591
20.076 144.66907 139.89102
20.078 123.01594 140.53481
20.08 154.45853 141.15473
20.082 128.33753 141.74846
20.084 127.69133 142.31388
20.086 136.36622 142.84917
20.088 123.26242 143.35285
20.09 153.21917 143.82361
20.092 157.54644 144.26106
20.094 140.46887 144.66465
20.096 148.11883 145.03425
20.098 129.73611 145.36983
20.1 153.10831 145.67255
20.102 140.61991 145.9426
20.104 128.55525 146.1806
20.106 125.20511 146.38596
20.108 144.73604 146.56147
20.11 147.10401 146.70627
20.112 131.21834 146.82046
20.114 138.37001 146.90392
20.116 115.70081 146.95635
20.118 118.29759 146.97729
20.12 150.87033 146.96617
20.122 123.68011 146.9224
20.124 133.29405 146.84545
20.126 153.25797 146.7349
20.128 139.70214 146.59054
20.13 146.64314 146.41245
20.132 140.56946 146.20101
20.134 141.36007 145.95698
20.136 135.80433 145.68149
20.138 147.81396 145.37605
20.14 153.33388 145.04252
20.142 145.19292 144.68308
20.144 136.38004 144.30021
20.146 143.473 143.89663
20.148 136.51904 143.47522
20.15 147.9891 143.03905
20.152 149.72125 142.59126
20.154 121.08837 142.13505
20.156 145.97483 141.67368
20.158 128.92708 141.21036
20.16 136.40351 140.74828
20.162 161.80825 140.29057
20.164 141.92873 139.84024
20.166 124.75777 139.39956
20.168 146.7884 138.97242
20.17 119.08314 138.56071
20.172 140.9996 138.16669
20.174 139.31544 137.79237
20.176 124.40282 137.43948
20.178 150.9541 137.10951
20.18 104.75058 136.80362
20.182 138.67849 136.52276
20.184 137.03925 136.2676
20.186 116.40095 136.03856
20.188 151.09354 135.83589
20.19 108.57744 135.65961
20.192 153.00477 135.50955
20.194 131.0556 135.38541
20.196 110.50227 135.28668
20.198 150.36354 135.21273
20.2 130.49929 135.16274
20.202 158.81629 135.13573
20.204 161.29501 135.13053
20.206 126.1694 135.14575
20.208 149.24442 135.17983
20.21 123.96098 135.23083
20.212 135.22179 135.29695
20.214 161.32897 135.37581
20.216 132.94585 135.46496
20.218 138.52699 135.56171
20.22 143.65496 135.66329
20.222 131.25398 135.76677
20.224 137.80546 135.86915
20.226 142.54248 135.9675
20.228 129.25418 136.05893
20.23 130.41702 136.14072
20.232 135.62696 136.21036
20.234 140.61512 136.2656
20.236 143.6929 136.30452
20.238 142.43969 136.3255
20.24 131.47153 136.32725
20.242 125.16434 136.30879
20.244 113.36961 136.26943
20.246 128.85484 136.20868
20.248 128.46768 136.12626
20.25 125.63576 136.02201
20.252 141.62966 135.89588
20.254 145.65378 135.74789
20.256 150.00869 135.57811
20.258 130.72024 135.3867
20.26 134.98119 135.17383
20.262 129.34872 134.93981
20.264 111.90342 134.68502
20.266 153.21476 134.40997
20.268 134.25255 134.11531
20.27 109.3578 133.80185
20.272 130.89512 133.47052
20.274 121.64045 133.12184
20.276 112.5048 132.75811
20.278 144.42067 132.38002
20.28 133.5779 131.98889
20.282 128.80049 131.58605
20.284 136.64294 131.17284
20.286 124.85706 130.75055
20.288 142.94897 130.32046
20.29 108.71399 129.88381
20.292 130.92317 129.4418
20.294 133.14213 128.99561
20.296 124.91022 128.54645
20.298 142.99288 128.09549
20.3 144.80789 127.64398
20.302 126.56118 127.19317
20.304 109.83247 126.74438
20.306 119.11198 126.29894
20.308 139.3424 125.85824
20.31 117.58341 125.42365
20.312 140.48994 124.99654
20.314 125.3135 124.57825
20.316 110.78766 124.17007
20.318 139.73342 123.77313
20.32 119.76274 123.38866
20.322 110.25669 123.01758
20.324 137.67895 122.66076
20.326 124.87203 122.31891
20.328 125.11147 121.99264
20.33 146.51819 121.68239
20.332 108.18473 121.38847
20.334 125.79014 121.11107
20.336 112.74965 120.85024
20.338 126.23404 120.6059
20.34 111.73492 120.37787
20.342 89.79458 120.16585
20.344 120.83534 119.96942
20.346 129.03932 119.78809
20.348 117.55535 119.62126
20.35 114.39823 119.46827
20.352 109.84787 119.32839
20.354 130.83671 119.20082
20.356 121.78093 119.08474
20.358 95.7838 118.97931
20.36 109.9723 118.88349
20.362 130.24197 118.79613
20.364 130.65291 118.71766
20.366 127.38121 118.64665
20.368 111.97177 118.58242
20.37 115.03323 118.52439
20.372 110.39038 118.47211
20.374 101.37176 118.42522
20.376 120.33157 118.3835
20.378 116.7654 118.34686
20.38 116.50883 118.31531
20.382 112.11937 118.289
20.384 114.65762 118.26819
20.386 134.65325 118.25321
20.388 118.41909 118.24448
20.39 132.63048 118.24247
20.392 121.50583 118.24765
20.394 115.38973 118.26057
20.396 111.39285 118.28171
20.398 119.7796 118.31155
20.4 118.81979 118.35052
20.402 125.09912 118.39901
20.404 112.20286 118.45734
20.406 115.54375 118.52499
20.408 119.02456 118.60349
20.41 123.98433 118.69254
20.412 116.48766 118.79197
20.414 115.16785 118.90169
20.416 111.72888 119.02155
20.418 125.43679 119.15131
20.42 118.64103 119.29064
20.422 109.87021 119.43912
20.424 127.61598 119.59638
20.426 124.88301 119.76188
20.428 114.4277 119.9351
20.43 121.16258 120.11476
20.432 131.76433 120.3018
20.434 105.26006 120.49497
20.436 100.89619 120.6938
20.438 139.90102 120.89789
20.44 115.96567 121.10687
20.442 134.48777 121.32058
20.444 119.42676 121.53885
20.446 91.86853 121.76161
20.448 114.65629 121.98892
20.45 126.62288 122.22089
20.452 122.65948 122.45771
20.454 130.35792 122.69961
20.456 136.74355 122.94683
20.458 121.87618 123.19963
20.46 132.78378 123.45823
20.462 120.23365 123.72282
20.464 118.3742 123.9935
20.466 126.77732 124.27032
20.468 139.16194 124.55324
20.47 116.46576 124.8421
20.472 127.10181 125.13663
20.474 110.27187 125.43661
20.476 111.38695 125.74158
20.478 110.33744 126.05111
20.48 126.92338 126.3647
20.482 130.51255 126.68185
20.484 115.09419 127.00204
20.486 116.2307 127.32493
20.488 134.65405 127.65017
20.49 132.33609 127.97755
20.492 121.71675 128.30709
20.494 143.33573 128.63899
20.496 120.44029 128.97373
20.498 139.29688 129.31207
20.5 128.50894 129.65503
20.502 128.7891 130.00408
20.504 138.40484 130.36089
20.506 128.75229 130.72746
20.508 118.37107 131.10607
20.51 121.53851 131.49925
20.512 115.8396 131.9097
20.514 139.38783 132.34027
20.516 110.29543 132.79387
20.518 129.41677 133.27343
20.52 126.63741 133.78184
20.522 110.273 134.32186
20.524 132.73976 134.89609
20.526 114.17488 135.50695
20.528 127.58114 136.15655
20.53 120.05857 136.84671
20.532 139.11735 137.57882
20.534 130.8673 138.35403
20.536 118.13506 139.17305
20.538 120.56345 140.03605
20.54 113.98242 140.94281
20.542 142.97412 141.89264
20.544 127.93413 142.88434
20.546 139.95948 143.91626
20.548 124.55914 144.98626
20.55 138.1523 146.0917
20.552 158.99798 147.22949
20.554 133.30406 148.39607
20.556 145.89058 149.5874
20.558 143.81755 150.79901
20.56 141.48167 152.02599
20.562 164.57647 153.26299
20.564 147.56079 154.50421
20.566 138.99205 155.74344
20.568 152.90142 156.97406
20.57 140.26404 158.18901
20.572 140.93949 159.38086
20.574 127.18008 160.54182
20.576 160.09942 161.66377
20.578 179.9121 162.73837
20.58 144.04521 163.75677
20.582 156.58317 164.71096
20.584 160.00841 165.59212
20.586 142.22248 166.39194
20.588 157.07071 167.10247
20.59 139.36864 167.71635
20.592 178.30128 168.22694
20.594 154.33 168.62851
20.596 153.4954 168.91641
20.598 164.80932 169.08715
20.6 160.47883 169.13857
20.602 164.15255 169.06985
20.604 169.43472 168.88082
20.606 186.86935 168.5749
20.608 169.25031 168.15464
20.61 160.42873 167.62459
20.612 200.46137 166.99043
20.614 172.48634 166.25889
20.616 168.4732 165.43753
20.618 147.85478 164.53461
20.62 179.02018 163.55893
20.622 174.00179 162.51958
20.624 170.21249 161.42585
20.626 143.98141 160.28699
20.628 152.32288 159.11211
20.63 158.64438 157.91005
20.632 158.0908 156.68926
20.634 155.74953 155.45772
20.636 168.54024 154.2229
20.638 138.2915 152.99175
20.64 155.71981 151.77063
20.642 153.46287 150.56534
20.644 140.73673 149.38118
20.646 153.15669 148.22288
20.648 157.06238 147.09471
20.65 150.02013 146.00049
20.652 132.12106 144.94361
20.654 128.64067 143.92709
20.656 140.79703 142.9536
20.658 137.28651 142.02551
20.66 157.97786 141.14488
20.662 150.20549 140.31351
20.664 129.49186 139.53298
20.666 164.62951 138.80455
20.668 125.89512 138.12942
20.67 145.22122 137.50839
20.672 126.87322 136.94211
20.674 138.59832 136.43099
20.676 154.24125 135.97514
20.678 133.0233 135.57469
20.68 164.32169 135.22931
20.682 115.66853 134.93853
20.684 140.46841 134.7017
20.686 143.52047 134.51795
20.688 114.60761 134.38628
20.69 134.46467 134.30549
20.692 151.57378 134.27426
20.694 140.6227 134.29109
20.696 129.34709 134.3544
20.698 142.72928 134.46244
20.7 123.3814 134.61292
20.702 132.78518 134.80467
20.704 134.81979 135.03511
20.706 156.47444 135.30192
20.708 140.49736 135.60262
20.71 137.26776 135.93455
20.712 137.62627 136.29483
20.714 116.51905 136.68041
20.716 139.13615 137.08804
20.718 146.91389 137.51426
20.72 116.5702 137.95544
20.722 133.80573 138.40777
20.724 139.42498 138.86731
20.726 136.30839 139.33002
20.728 131.43408 139.79179
20.73 130.78041 140.24851
20.732 143.5283 140.69609
20.734 137.09364 141.13058
20.736 138.64221 141.54821
20.738 133.73661 141.94542
20.74 152.20587 142.31898
20.742 119.92258 142.66599
20.744 163.05007 142.98397
20.746 120.14598 143.27081
20.748 119.57953 143.52484
20.75 128.2681 143.74479
20.752 136.07562 143.92974
20.754 136.50726 144.07911
20.756 139.94041 144.19262
20.758 144.44841 144.2702
20.76 151.16403 144.31171
20.762 138.22607 144.31802
20.764 134.37775 144.28931
20.766 140.07484 144.22619
20.768 149.65884 144.12942
20.77 147.32005 143.99993
20.772 142.40937 143.83886
20.774 115.7202 143.64754
20.776 141.78585 143.42752
20.778 139.19067 143.18058
20.78 138.21359 142.90868
20.782 130.41514 142.61397
20.784 157.22675 142.2987
20.786 151.1512 141.96521
20.788 140.13632 141.61586
20.79 151.21707 141.25286
20.792 161.3614 140.87859
20.794 125.14863 140.49502
20.796 130.34504 140.10399
20.798 143.8562 139.70712
20.8 145.31785 139.3058
20.802 142.19832 138.90113
20.804 139.77098 138.49395
20.806 143.27256 138.08484
20.808 136.06965 137.67416
20.81 123.11977 137.26203
20.812 145.71764 136.84841
20.814 130.41732 136.43309
20.816 140.69568 136.01576
20.818 127.4919 135.59608
20.82 132.96221 135.17369
20.822 130.08436 134.74826
20.824 117.42387 134.31961
20.826 150.94979 133.88765
20.828 108.24185 133.45253
20.83 131.28245 133.0146
20.832 147.37357 132.57444
20.834 134.42509 132.13181
20.836 128.19928 131.69004
20.838 128.59543 131.24938
20.84 128.96286 130.81142
20.842 130.28116 130.37793
20.844 129.66944 129.95085
20.846 133.2808 129.53224
20.848 122.41222 129.12422
20.85 125.50247 128.72894
20.852 123.27936 128.34854
20.854 133.42077 127.98509
20.856 127.35393 127.64059
20.858 127.67297 127.31694
20.86 110.86502 127.01588
20.862 151.03637 126.73902
20.864 122.18025 126.4878
20.866 115.24727 126.26351
20.868 132.10869 126.06725
20.87 103.04597 125.89996
20.872 147.73847 125.76239
20.874 130.97405 125.65513
20.876 106.31802 125.5786
20.878 144.00196 125.53303
20.88 114.65406 125.5184
20.882 130.99274 125.5348
20.884 124.29188 125.58139
20.886 97.84574 125.65874
20.888 152.33962 125.76576
20.89 128.36734 125.90172
20.892 135.11629 126.06572
20.894 140.38386 126.25675
20.896 121.57014 126.47362
20.898 131.81619 126.71504
20.9 135.20016 126.9796
20.902 119.7288 127.26568
20.904 142.5004 127.57189
20.906 107.39855 127.89643
20.908 143.64934 128.23758
20.91 151.19279 128.59353
20.912 152.69219 128.96244
20.914 144.55038 129.34241
20.916 127.08675 129.73152
20.918 130.7688 130.12777
20.92 130.56022 130.52912
20.922 131.52747 130.93344
20.924 123.75314 131.3385
20.926 141.03124 131.74196
20.928 141.27324 132.14137
20.93 131.989 132.53412
20.932 133.23465 132.91748
20.934 124.43803 133.2886
20.936 141.37285 133.64449
20.938 117.68858 133.98211
20.94 118.03571 134.29834
20.942 134.88506 134.59007
20.944 116.46163 134.85425
20.946 141.95973 135.08786
20.948 110.36654 135.28835
20.95 126.93148 135.45315
20.952 127.80575 135.58013
20.954 124.71363 135.66756
20.956 126.38845 135.71416
20.958 135.25683 135.7182
20.96 119.7273 135.68144
20.962 123.24762 135.60329
20.964 122.68115 135.48467
20.966 118.05114 135.32706
20.968 128.39736 135.13246
20.97 120.77497 134.90332
20.972 117.52487 134.64246
20.974 132.42049 134.35299
20.976 134.29074 134.03826
20.978 133.26124 133.70175
20.98 137.99696 133.34697
20.982 120.60722 132.97742
20.984 114.04949 132.59651
20.986 127.93821 132.20752
20.988 126.33648 131.81351
20.99 131.29647 131.4173
20.992 115.91419 131.02147
20.994 133.4408 130.62834
20.996 141.60544 130.23993
20.998 116.16102 129.85798
21 124.97137 129.48396
21.002 126.77122 129.11906
21.004 121.1276 128.76422
21.006 110.57871 128.42014
21.008 136.6695 128.08598
21.01 131.20453 127.76464
21.012 108.80996 127.4549
21.014 121.49337 127.15633
21.016 125.03832 126.86944
21.018 152.82301 126.59356
21.02 102.55744 126.3283
21.022 126.60843 126.07319
21.024 144.65951 125.82777
21.026 113.81077 125.59154
21.028 140.42643 125.36399
21.03 125.00657 125.14465
21.032 140.63321 124.93309
21.034 137.58685 124.72887
21.036 118.13697 124.53163
21.038 109.14812 124.34101
21.04 134.66011 124.15668
21.042 132.00958 123.97832
21.044 137.46564 123.8056
21.046 131.2268 123.63821
21.048 133.60237 123.47579
21.05 142.36553 123.31794
21.052 115.31886 123.16438
21.054 136.57027 123.01463
21.056 120.38141 122.86829
21.058 104.12945 122.72489
21.06 130.9278 122.5834
21.062 136.3966 122.4446
21.064 117.25227 122.30743
21.066 119.25566 122.17152
21.068 123.20339 122.03648
21.07 137.17288 121.902
21.072 124.86182 121.76779
21.074 109.44156 121.63352
21.076 111.86062 121.49918
21.078 116.85637 121.36458
21.08 122.39028 121.2296
21.082 125.92628 121.0942
21.084 119.96767 120.95838
21.086 122.90368 120.82214
21.088 118.73988 120.68555
21.09 120.48845 120.54866
21.092 106.80317 120.41155
21.094 107.44788 120.2743
21.096 121.74299 120.137
21.098 120.06114 119.9997
21.1 120.99986 119.86246
21.102 134.28689 119.72534
21.104 123.29746 119.58779
21.106 131.52588 119.45099
21.108 134.92531 119.31438
21.11 113.29661 119.17797
21.112 117.44272 119.04183
21.114 107.07833 118.90599
21.116 122.86023 118.77052
21.118 136.45616 118.6355
21.12 126.23012 118.50113
21.122 118.42264 118.36757
21.124 111.97116 118.23506
21.126 122.10817 118.10387
21.128 118.30245 117.97433
21.13 107.04539 117.84682
21.132 130.54753 117.72175
21.134 128.56792 117.59958
21.136 122.34765 117.48079
21.138 115.82927 117.3659
21.14 119.26416 117.2554
21.142 137.98238 117.14983
21.144 112.37792 117.04959
21.146 134.58435 116.95532
21.148 131.86993 116.86738
21.15 107.59001 116.78617
21.152 109.73492 116.71201
21.154 108.21184 116.64518
21.156 110.04507 116.58589
21.158 135.05521 116.53427
21.16 118.11286 116.49037
21.162 112.17635 116.45417
21.164 114.41014 116.42541
21.166 124.32005 116.40427
21.168 119.57836 116.39031
21.17 113.49232 116.3832
21.172 134.3386 116.38259
21.174 105.23707 116.388
21.176 100.20509 116.39891
21.178 131.25811 116.41475
21.18 117.03438 116.4349
21.182 136.25797 116.45871
21.184 133.60769 116.48548
21.186 110.67876 116.51451
21.188 143.88666 116.54512
21.19 102.80934 116.57662
21.192 101.81232 116.60794
21.194 121.22415 116.63935
21.196 106.40248 116.66989
21.198 124.76915 116.69913
21.2 116.77803 116.72671
21.202 99.75354 116.7524
21.204 115.41421 116.77607
21.206 117.62962 116.79768
21.208 130.88917 116.81734
21.21 131.1135 116.83523
21.212 112.5712 116.85163
21.214 124.00411 116.86691
21.216 119.29567 116.8815
21.218 120.49011 116.89589
21.22 104.409 116.91062
21.222 105.41512 116.92626
21.224 112.72164 116.94341
21.226 116.95836 116.96269
21.228 108.51877 116.98471
21.23 116.5018 117.01011
21.232 99.41229 117.0395
21.234 97.45887 117.07351
21.236 112.94446 117.11272
21.238 117.30416 117.15771
21.24 115.03127 117.20902
21.242 118.11628 117.26705
21.244 126.28967 117.33244
21.246 123.73241 117.40549
21.248 105.58491 117.48637
21.25 122.88312 117.57558
21.252 132.79932 117.67318
21.254 127.15128 117.77923
21.256 121.28312 117.89371
21.258 107.31403 118.0165
21.26 129.27102 118.14742
21.262 123.49558 118.28615
21.264 128.83712 118.43231
21.266 142.17524 118.58484
21.268 123.84183 118.74436
21.27 133.70271 118.90968
21.272 98.28879 119.08008
21.274 96.98757 119.25485
21.276 132.45203 119.43319
21.278 119.73718 119.61428
21.28 121.4937 119.79728
21.282 123.81358 119.98134
21.284 121.9306 120.16557
21.286 136.032 120.34912
21.288 114.80111 120.5311
21.29 123.27941 120.71064
21.292 124.54711 120.88689
21.294 122.85014 121.05896
21.296 131.73579 121.226
21.298 131.55089 121.38715
21.3 120.44518 121.54156
21.302 140.36657 121.68837
21.304 130.06732 121.82677
21.306 125.11553 121.95594
21.308 140.08969 122.07511
21.31 114.53024 122.18354
21.312 115.81469 122.28055
21.314 128.41946 122.36553
21.316 124.49014 122.43792
21.318 140.46361 122.49728
21.32 108.38897 122.54323
21.322 123.40048 122.57551
21.324 116.73658 122.59392
21.326 103.97156 122.59857
21.328 143.76906 122.58952
21.33 123.49341 122.56704
21.332 103.67038 122.5315
21.334 118.66894 122.48357
21.336 135.8171 122.42393
21.338 106.09076 122.3535
21.34 126.23737 122.27331
21.342 103.43797 122.18455
21.344 125.57822 122.08852
21.346 110.39391 121.98654
21.348 107.87925 121.88024
21.35 143.05938 121.77106
21.352 106.98764 121.66052
21.354 110.13692 121.55014
21.356 133.35747 121.44143
21.358 115.21165 121.33581
21.36 122.01254 121.23464
21.362 118.68258 121.13908
21.364 113.31739 121.0505
21.366 117.68752 120.96983
21.368 119.31884 120.89801
21.37 135.50038 120.83529
21.372 128.63965 120.78339
21.374 124.35136 120.74232
21.376 134.61423 120.7125
21.378 123.75279 120.69424
21.38 122.28445 120.68772
21.382 117.62642 120.69263
21.384 118.26978 120.70985
21.386 110.80785 120.73891
21.388 113.23906 120.77972
21.39 117.02194 120.83215
21.392 117.52834 120.89611
21.394 112.40247 120.97144
21.396 112.8285 121.05804
21.398 116.7802 121.15582
21.4 123.81845 121.26473
21.402 136.6457 121.38476
21.404 106.80452 121.51593
21.406 133.43865 121.65828
21.408 123.0581 121.81189
21.41 94.25556 121.97684
21.412 136.18751 122.15321
21.414 129.81343 122.34103
21.416 135.71813 122.54009
21.418 120.48968 122.7508
21.42 127.14135 122.97281
21.422 141.32761 123.20544
21.424 112.74725 123.44927
21.426 127.30218 123.70317
21.428 112.77748 123.96705
21.43 97.35408 124.23997
21.432 140.84762 124.52106
21.434 129.00089 124.80934
21.436 119.54315 125.10366
21.438 123.27974 125.40275
21.44 130.13969 125.70519
21.442 132.9901 126.00948
21.444 121.31775 126.31398
21.446 133.02601 126.61704
21.448 142.80242 126.91695
21.45 116.54535 127.21204
21.452 125.30773 127.5007
21.454 147.32886 127.78144
21.456 105.27659 128.05296
21.458 136.43216 128.31418
21.46 135.72321 128.56433
21.462 137.3219 128.80294
21.464 129.07766 129.02992
21.466 126.93907 129.24556
21.468 138.18409 129.45054
21.47 139.67188 129.6459
21.472 124.38076 129.83305
21.474 144.54481 130.0137
21.476 114.34987 130.18981
21.478 154.05927 130.36355
21.48 128.01779 130.53723
21.482 121.02984 130.71323
21.484 169.54943 130.89394
21.486 126.44382 131.0817
21.488 147.15023 131.27875
21.49 148.76532 131.48719
21.492 135.48428 131.70894
21.494 134.31481 131.94568
21.496 121.68705 132.19888
21.498 129.96677 132.46973
21.5 147.43854 132.75914
21.502 140.68089 133.06777
21.504 145.52724 133.39595
21.506 131.55095 133.74376
21.508 109.88221 134.11094
21.51 136.1943 134.49696
21.512 140.62701 134.90099
21.514 133.59541 135.3219
21.516 129.54317 135.75826
21.518 159.47026 136.20833
21.52 145.26326 136.67012
21.522 136.13789 137.14132
21.524 154.36103 137.61939
21.526 159.3943 138.10153
21.528 143.94581 138.58477
21.53 161.17471 139.06594
21.532 111.59777 139.54181
21.534 147.7114 140.00908
21.536 137.77688 140.46453
21.538 151.28115 140.90505
21.54 146.9224 141.32773
21.542 134.2162 141.72999
21.544 147.37714 142.10961
21.546 139.22898 142.46484
21.548 130.48931 142.79442
21.55 143.7092 143.0972
21.552 163.17901 143.37372
21.554 146.87851 143.62388
21.556 149.98485 143.84841
21.558 156.25138 144.04841
21.56 146.6027 144.22529
21.562 148.20951 144.38068
21.564 117.03992 144.51632
21.566 136.15257 144.63397
21.568 148.2249 144.7353
21.57 130.62104 144.82202
21.572 152.17454 144.89548
21.574 147.18516 144.95689
21.576 142.35015 145.00721
21.578 161.89619 145.04717
21.58 141.17749 145.07729
21.582 158.3772 145.09787
21.584 157.1622 145.10906
21.586 133.82145 145.11092
21.588 155.96467 145.10344
21.59 160.17522 145.08661
21.592 167.28504 145.06049
21.594 152.06347 145.02521
21.596 145.259 144.98106
21.598 169.32091 144.92845
21.6 129.74554 144.86796
21.602 145.93796 144.80032
21.604 146.40952 144.72636
21.606 130.9791 144.647
21.608 160.49962 144.56316
21.61 140.67164 144.47575
21.612 140.46645 144.38558
21.614 162.57763 144.29332
21.616 165.89572 144.19943
21.618 146.10954 144.10417
21.62 147.66611 144.00749
21.622 148.11806 143.90909
21.624 156.02371 143.80839
21.626 150.89019 143.70452
21.628 157.68966 143.59636
21.63 198.59044 143.48259
21.632 138.60051 143.36168
21.634 130.97598 143.23203
21.636 156.11823 143.09191
21.638 148.95927 142.9396
21.64 158.72113 142.77333
21.642 147.22428 142.59178
21.644 142.22849 142.39341
21.646 142.17453 142.17698
21.648 142.21565 141.94151
21.65 141.52415 141.68623
21.652 154.71151 141.41066
21.654 145.43687 141.11452
21.656 159.97631 140.79781
21.658 139.24147 140.46071
21.66 137.28485 140.10361
21.662 147.00099 139.72641
21.664 121.05806 139.3311
21.666 140.29033 138.91786
21.668 144.25471 138.48761
21.67 139.99459 138.04142
21.672 148.60448 137.58044
21.674 132.42483 137.10597
21.676 137.60187 136.61942
21.678 143.87063 136.12232
21.68 151.36373 135.61634
21.682 163.54921 135.10329
21.684 135.01101 134.58506
21.686 130.14787 134.06366
21.688 125.51082 133.54113
21.69 144.54998 133.01957
21.692 136.72032 132.50109
21.694 160.13981 131.98778
21.696 137.48516 131.48165
21.698 146.66153 130.98466
21.7 141.21624 130.49865
21.702 130.37718 130.02534
21.704 125.94628 129.56632
21.706 136.25209 129.12303
21.708 139.88734 128.69676
21.71 134.40651 128.28865
21.712 148.87417 127.89966
21.714 128.23764 127.53032
21.716 120.86593 127.1819
21.718 135.01425 126.85462
21.72 132.4573 126.54876
21.722 144.1719 126.26467
21.724 118.64724 126.00235
21.726 119.26506 125.76169
21.728 153.13137 125.54245
21.73 144.11505 125.34424
21.732 127.5571 125.16649
21.734 110.53578 125.00851
21.736 120.50478 124.86944
21.738 124.75348 124.74826
21.74 136.83726 124.64385
21.742 134.49816 124.55491
21.744 129.88639 124.48005
21.746 124.26457 124.41776
21.748 132.9351 124.36644
21.75 104.10209 124.32443
21.752 130.10411 124.29001
21.754 124.06783 124.26143
21.756 116.46867 124.23697
21.758 136.54375 124.21489
21.76 121.66112 124.19354
21.762 135.93367 124.17128
21.764 146.4152 124.14669
21.766 141.16964 124.11833
21.768 126.11938 124.08495
21.77 154.34428 124.04543
21.772 109.21817 123.99881
21.774 119.39431 123.94427
21.776 125.44561 123.8812
21.778 118.12353 123.80913
21.78 120.76842 123.72777
21.782 112.98506 123.63701
21.784 125.61151 123.53689
21.786 138.60717 123.42727
21.788 111.03353 123.30919
21.79 139.49176 123.18278
21.792 152.3439 123.04865
21.794 120.22574 122.90749
21.796 99.41743 122.76007
21.798 143.84006 122.60626
21.8 135.54414 122.44893
21.802 137.49188 122.28804
21.804 128.00064 122.12453
21.806 125.8076 121.95939
21.808 111.95819 121.79359
21.81 120.44311 121.62811
21.812 125.87571 121.46391
21.814 115.30195 121.30149
21.816 126.99659 121.14267
21.818 125.10675 120.98791
21.82 99.11388 120.83807
21.822 137.84155 120.69398
21.824 112.42311 120.55645
21.826 109.85782 120.42585
21.828 139.99509 120.30366
21.83 123.31202 120.19018
21.832 108.71305 120.08603
21.834 127.64077 119.99084
21.836 119.78329 119.9071
21.838 119.31207 119.83434
21.84 106.75151 119.77241
21.842 136.01257 119.72296
21.844 146.01564 119.68574
21.846 118.06419 119.66113
21.848 132.2157 119.64934
21.85 127.50727 119.65068
21.852 128.55742 119.66558
21.854 116.78208 119.6941
21.856 143.4247 119.73618
21.858 106.7242 119.79242
21.86 118.51317 119.86266
21.862 139.20499 119.94696
21.864 105.97394 120.04531
21.866 132.48162 120.15765
21.868 124.11907 120.28391
21.87 122.36843 120.42392
21.872 125.99878 120.57751
21.874 121.23126 120.74444
21.876 125.97634 120.92443
21.878 133.2951 121.11711
21.88 129.39008 121.32222
21.882 119.24915 121.53901
21.884 116.46705 121.76766
21.886 120.13635 122.00739
21.888 144.28145 122.2577
21.89 122.63059 122.51793
21.892 132.56459 122.78775
21.894 127.71777 123.0664
21.896 108.00793 123.35322
21.898 121.35047 123.64748
21.9 119.61513 123.94842
21.902 130.66 124.25519
21.904 141.1107 124.56678
21.906 117.74897 124.88187
21.908 134.27814 125.20047
21.91 138.56905 125.52091
21.912 128.97573 125.84201
21.914 149.36169 126.16257
21.916 120.61264 126.48131
21.918 116.57742 126.79692
21.92 122.51207 127.10805
21.922 132.39387 127.41334
21.924 123.89572 127.71139
21.926 138.62725 128.00086
21.928 139.28157 128.28038
21.93 145.35903 128.54864
21.932 140.50549 128.8044
21.934 140.85036 129.04651
21.936 139.80373 129.27391
21.938 135.97195 129.48569
21.94 143.00453 129.68111
21.942 127.64149 129.85961
21.944 149.07934 130.02086
21.946 149.61564 130.16476
21.948 127.7733 130.29145
21.95 129.23228 130.40135
21.952 130.50255 130.49513
21.954 106.43034 130.5737
21.956 141.13962 130.63821
21.958 132.43532 130.69002
21.96 132.24367 130.73064
21.962 131.20884 130.76173
21.964 131.67646 130.78506
21.966 129.82196 130.80239
21.968 152.39638 130.81553
21.97 146.0448 130.82621
21.972 155.94124 130.8361
21.974 153.90133 130.84675
21.976 126.20206 130.85957
21.978 110.92072 130.87573
21.98 135.02807 130.89613
21.982 127.97231 130.92216
21.984 126.37955 130.95418
21.986 121.02201 130.99264
21.988 135.17405 131.03778
21.99 133.27613 131.08965
21.992 132.01779 131.14809
21.994 136.62034 131.21275
21.996 134.13656 131.2831
21.998 141.65412 131.35845
22 129.74536 131.43792
22.002 138.92657 131.52051
22.004 141.81121 131.60505
22.006 128.61586 131.69028
22.008 138.94009 131.77485
22.01 130.13274 131.85729
22.012 107.39486 131.93614
22.014 134.79209 132.00991
22.016 141.2154 132.07714
22.018 140.90786 132.13644
22.02 127.23179 132.1861
22.022 125.10961 132.22592
22.024 139.9431 132.25453
22.026 120.02235 132.27131
22.028 120.7976 132.27584
22.03 129.20931 132.26799
22.032 118.37625 132.24789
22.034 122.82107 132.21597
22.036 112.51782 132.17285
22.038 128.17679 132.11939
22.04 131.4863 132.0566
22.042 129.53868 131.98547
22.044 119.19149 131.90746
22.046 125.28315 131.82364
22.048 113.01901 131.73519
22.05 137.53592 131.64321
22.052 118.57527 131.54868
22.054 119.80863 131.45247
22.056 145.3392 131.35526
22.058 129.2577 131.25754
22.06 134.31689 131.1596
22.062 125.17964 131.06154
22.064 113.94892 130.9632
22.066 156.77442 130.86431
22.068 146.06778 130.76432
22.07 133.22399 130.66251
22.072 131.58041 130.55801
22.074 126.93902 130.44981
22.076 140.66466 130.33682
22.078 121.52068 130.21786
22.08 143.96287 130.09173
22.082 142.81507 129.95725
22.084 131.16756 129.81329
22.086 128.76444 129.65882
22.088 121.79694 129.49292
22.09 147.66882 129.31485
22.092 156.38976 129.12403
22.094 125.22627 128.92008
22.096 131.76635 128.70282
22.098 136.31815 128.47228
22.1 139.39297 128.22774
22.102 133.99805 127.97154
22.104 139.04686 127.7033
22.106 141.81028 127.42379
22.108 130.1039 127.13385
22.11 119.99198 126.83455
22.112 141.11124 126.52692
22.114 119.81039 126.2121
22.116 132.58163 125.89042
22.118 125.648 125.56467
22.12 150.02845 125.23515
22.122 139.69586 124.90293
22.124 123.95781 124.56902
22.126 133.91574 124.23433
22.128 128.92283 123.89971
22.13 114.78713 123.56578
22.132 123.24198 123.23332
22.134 130.53181 122.90278
22.136 149.19636 122.57457
22.138 128.81106 122.24902
22.14 126.77232 121.9264
22.142 122.9754 121.60691
22.144 120.43433 121.29069
22.146 140.27549 120.97786
22.148 114.89106 120.66854
22.15 117.03991 120.36284
22.152 139.58007 120.06087
22.154 123.17431 119.76277
22.156 116.5531 119.46873
22.158 112.47761 119.17895
22.16 118.70163 118.89369
22.162 113.89524 118.61322
22.164 117.24819 118.33759
22.166 129.6907 118.06771
22.168 143.25818 117.80367
22.17 115.56185 117.54587
22.172 141.65219 117.29468
22.174 128.65898 117.05052
22.176 130.18679 116.81376
22.178 126.63122 116.58463
22.18 125.12895 116.36375
22.182 112.95503 116.1513
22.184 121.57855 115.94756
22.186 112.63224 115.75277
22.188 142.45478 115.56713
22.19 127.39352 115.3908
22.192 112.41037 115.22389
22.194 139.43761 115.06648
22.196 112.38758 114.9186
22.198 120.82334 114.78025
22.2 125.80864 114.65136
22.202 116.87765 114.53186
22.204 126.22571 114.42162
22.206 121.08005 114.3205
22.208 119.20227 114.22832
22.21 157.92455 114.14486
22.212 123.28609 114.06992
22.214 123.19906 114.00323
22.216 106.65047 113.94455
22.218 115.92049 113.89361
22.22 125.23844 113.85013
22.222 121.62863 113.81385
22.224 123.23184 113.78448
22.226 127.29569 113.76148
22.228 136.74588 113.74514
22.23 128.71285 113.73492
22.232 115.39999 113.73058
22.234 127.21086 113.73187
22.236 120.28643 113.73857
22.238 108.97013 113.75045
22.24 124.54856 113.76728
22.242 126.91781 113.78884
22.244 117.78868 113.81492
22.246 116.06093 113.84528
22.248 117.22951 113.8797
22.25 109.37886 113.91796
22.252 120.64558 113.95982
22.254 116.88052 114.00505
22.256 127.38195 114.05206
22.258 109.8607 114.10331
22.26 115.64897 114.15722
22.262 110.48265 114.21357
22.264 136.7148 114.27217
22.266 113.30424 114.33282
22.268 132.41623 114.39535
22.27 127.48086 114.45963
22.272 127.58875 114.52555
22.274 103.24249 114.59302
22.276 123.20207 114.66201
22.278 129.11135 114.73251
22.28 135.58021 114.80453
22.282 111.57816 114.87815
22.284 107.35835 114.95343
22.286 116.08004 115.03048
22.288 140.01477 115.10944
22.29 133.65998 115.19043
22.292 107.03532 115.27359
22.294 134.70508 115.35906
22.296 111.37386 115.44696
22.298 124.03932 115.53741
22.3 115.42467 115.63051
22.302 110.06472 115.72631
22.304 110.97178 115.82486
22.306 118.7526 115.92618
22.308 143.67828 116.03024
22.31 131.15648 116.137
22.312 108.10598 116.24639
22.314 133.91653 116.35832
22.316 114.64391 116.47268
22.318 100.90497 116.58936
22.32 130.40108 116.70825
22.322 105.53304 116.82923
22.324 130.83619 116.9522
22.326 115.45249 117.0771
22.328 113.9613 117.20385
22.33 107.87767 117.33243
22.332 117.37843 117.46281
22.334 139.0877 117.59502
22.336 125.47037 117.72906
22.338 115.74379 117.86497
22.34 131.56341 118.00277
22.342 119.83385 118.14249
22.344 114.65893 118.28412
22.346 128.6714 118.42763
22.348 125.17181 118.57297
22.35 133.90491 118.72001
22.352 131.86952 118.8686
22.354 117.01145 119.01852
22.356 130.66384 119.16948
22.358 107.53915 119.32104
22.36 140.1317 119.47298
22.362 131.84258 119.6247
22.364 121.24628 119.77567
22.366 128.13844 119.92527
22.368 131.28138 120.07281
22.37 125.94368 120.21756
22.372 129.4441 120.35874
22.374 134.14537 120.49552
22.376 120.9996 120.62704
22.378 106.46915 120.75244
22.38 133.54328 120.87081
22.382 116.89534 120.98112
22.384 125.53373 121.08281
22.386 104.61282 121.17488
22.388 121.84269 121.25653
22.39 134.02525 121.32699
22.392 135.85668 121.38558
22.394 130.13234 121.43165
22.396 118.13137 121.46466
22.398 135.11474 121.48403
22.4 132.22576 121.48956
22.402 145.79173 121.48087
22.404 112.65285 121.45618
22.406 110.44907 121.41854
22.408 126.60582 121.3664
22.41 112.19298 121.29988
22.412 99.50858 121.21921
22.414 112.98834 121.12463
22.416 111.64935 121.01689
22.418 122.38807 120.89645
22.42 128.22787 120.76404
22.422 115.60278 120.6205
22.424 137.09367 120.46676
22.426 120.43469 120.30389
22.428 134.65658 120.13298
22.43 119.98819 119.95525
22.432 96.99708 119.7719
22.434 139.86464 119.58427
22.436 146.32233 119.39362
22.438 110.00803 119.20123
22.44 114.89716 119.00836
22.442 121.64079 118.81622
22.444 124.15813 118.626
22.446 117.8426 118.43878
22.448 111.86267 118.2556
22.45 129.98294 118.07739
22.452 127.8892 117.90503
22.454 123.38848 117.73926
22.456 123.81715 117.5807
22.458 106.31837 117.43006
22.46 109.84615 117.28774
22.462 129.41028 117.15418
22.464 128.56564 117.02967
22.466 111.7537 116.91442
22.468 101.36393 116.8086
22.47 111.7235 116.71227
22.472 98.61892 116.62461
22.474 109.60922 116.5472
22.476 136.79943 116.4791
22.478 122.85488 116.42015
22.48 133.163 116.37013
22.482 122.16173 116.3288
22.484 112.34465 116.29587
22.486 117.74357 116.27106
22.488 111.80192 116.25405
22.49 112.26508 116.2445
22.492 113.21894 116.2421
22.494 115.41513 116.24649
22.496 119.80798 116.25661
22.498 108.46577 116.27359
22.5 100.43989 116.29637
_exptl_crystal_recrystallization_method 'solid state recrystallization'
